<?xml version="1.0" encoding="UTF-8"?>

<!-- generated on 01/02/20 09:51:58 by Eclipse SUMO netedit Version 1.2.0
<configuration xmlns:xsi="http://www.w3.org/2001/XMLSchema-instance" xsi:noNamespaceSchemaLocation="http://sumo.dlr.de/xsd/netconvertConfiguration.xsd">

    <input>
        <sumo-net-file value="F:\Work\sumo%20line\DownTown.net.xml"/>
    </input>

    <output>
        <output-file value="F:\Work\sumo%20line\DownTown.net.xml"/>
    </output>

    <processing>
        <geometry.max-grade.fix value="false"/>
        <offset.disable-normalization value="true"/>
        <lefthand value="false"/>
    </processing>

    <junctions>
        <no-turnarounds value="true"/>
        <junctions.corner-detail value="5"/>
        <junctions.limit-turn-speed value="5.5"/>
        <rectangular-lane-cut value="false"/>
    </junctions>

    <pedestrian>
        <walkingareas value="false"/>
    </pedestrian>

</configuration>
-->

<net version="1.1" junctionCornerDetail="5" limitTurnSpeed="5.50" xmlns:xsi="http://www.w3.org/2001/XMLSchema-instance" xsi:noNamespaceSchemaLocation="http://sumo.dlr.de/xsd/net_file.xsd">

    <location netOffset="0.00,0.00" convBoundary="-447.17,-757.36,476.57,588.45" origBoundary="-10000000000.00,-10000000000.00,10000000000.00,10000000000.00" projParameter="!"/>

    <edge id=":gneJ16_0" function="internal">
        <lane id=":gneJ16_0_0" index="0" speed="13.89" length="29.09" width="3.10" shape="-313.95,285.40 -313.96,256.31"/>
        <lane id=":gneJ16_0_1" index="1" speed="13.89" length="29.09" width="3.40" shape="-310.70,285.40 -310.71,256.31"/>
        <lane id=":gneJ16_0_2" index="2" speed="13.89" length="29.09" width="3.10" shape="-307.45,285.40 -307.46,256.31"/>
    </edge>
    <edge id=":gneJ16_3" function="internal">
        <lane id=":gneJ16_3_0" index="0" speed="10.97" length="12.28" width="3.25" shape="-307.45,285.40 -306.38,277.95 -303.91,273.89"/>
    </edge>
    <edge id=":gneJ16_12" function="internal">
        <lane id=":gneJ16_12_0" index="0" speed="10.97" length="15.36" width="3.25" shape="-303.91,273.89 -303.14,272.63 -297.75,269.44 -290.20,268.38"/>
    </edge>
    <edge id=":gneJ16_4" function="internal">
        <lane id=":gneJ16_4_0" index="0" speed="6.51" length="9.03" width="3.20" shape="-290.20,279.80 -292.65,280.15 -294.40,281.20 -295.45,282.95 -295.80,285.40"/>
    </edge>
    <edge id=":gneJ16_5" function="internal">
        <lane id=":gneJ16_5_0" index="0" speed="12.83" length="38.10" width="3.10" shape="-290.20,279.80 -300.59,278.33 -308.02,273.93 -312.47,266.59 -313.96,256.31"/>
    </edge>
    <edge id=":gneJ16_6" function="internal">
        <lane id=":gneJ16_6_0" index="0" speed="11.94" length="32.82" width="3.40" shape="-290.20,276.50 -299.17,275.24 -305.58,271.45 -309.43,265.14 -310.71,256.31"/>
    </edge>
    <edge id=":gneJ16_7" function="internal">
        <lane id=":gneJ16_7_0" index="0" speed="10.96" length="27.62" width="3.10" shape="-290.20,273.30 -297.75,272.24 -303.14,269.05 -306.38,263.74 -307.46,256.31"/>
    </edge>
    <edge id=":gneJ16_8" function="internal">
        <lane id=":gneJ16_8_0" index="0" speed="6.50" length="9.00" width="3.10" shape="-295.81,256.30 -295.46,258.73 -294.41,260.46 -292.66,261.50 -290.20,261.85"/>
    </edge>
    <edge id=":gneJ16_9" function="internal">
        <lane id=":gneJ16_9_0" index="0" speed="13.89" length="29.10" width="3.20" shape="-295.81,256.30 -295.80,285.40"/>
        <lane id=":gneJ16_9_1" index="1" speed="13.89" length="29.10" width="3.40" shape="-299.11,256.30 -299.10,285.40"/>
        <lane id=":gneJ16_9_2" index="2" speed="13.89" length="29.10" width="3.10" shape="-302.36,256.30 -302.35,285.40"/>
    </edge>
    <edge id=":gneJ21_0" function="internal">
        <lane id=":gneJ21_0_0" index="0" speed="13.89" length="30.75" width="3.20" shape="-293.89,11.25 -296.17,19.96 -296.61,26.16 -296.19,32.49 -295.88,41.62"/>
        <lane id=":gneJ21_0_1" index="1" speed="13.89" length="30.75" width="3.40" shape="-297.42,11.18 -299.67,19.90 -300.03,26.11 -299.53,32.46 -299.18,41.60"/>
        <lane id=":gneJ21_0_2" index="2" speed="13.89" length="30.75" width="3.10" shape="-300.97,11.11 -303.18,19.84 -303.43,26.06 -302.82,32.43 -302.43,41.58"/>
    </edge>
    <edge id=":gneJ21_3" function="internal">
        <lane id=":gneJ21_3_0" index="0" speed="11.84" length="13.15" width="3.40" shape="-300.97,11.11 -305.45,21.25 -306.83,22.78"/>
    </edge>
    <edge id=":gneJ21_4" function="internal">
        <lane id=":gneJ21_4_0" index="0" speed="11.34" length="12.22" width="3.10" shape="-300.97,11.11 -305.00,19.90 -306.79,21.72"/>
    </edge>
    <edge id=":gneJ21_12" function="internal">
        <lane id=":gneJ21_12_0" index="0" speed="11.84" length="21.30" width="3.40" shape="-306.83,22.78 -311.03,27.48 -317.71,29.81 -325.48,28.23"/>
    </edge>
    <edge id=":gneJ21_13" function="internal">
        <lane id=":gneJ21_13_0" index="0" speed="11.34" length="19.31" width="3.10" shape="-306.79,21.72 -310.21,25.18 -316.61,26.96 -324.21,25.24"/>
    </edge>
    <edge id=":gneJ21_5" function="internal">
        <lane id=":gneJ21_5_0" index="0" speed="6.25" length="8.83" width="3.15" shape="-319.70,14.62 -317.51,15.14 -315.68,14.69 -314.21,13.27 -313.09,10.87"/>
    </edge>
    <edge id=":gneJ21_6" function="internal">
        <lane id=":gneJ21_6_0" index="0" speed="13.89" length="34.32" width="3.40" shape="-320.97,17.62 -311.40,22.60 -304.58,28.26 -300.51,34.59 -299.18,41.60"/>
    </edge>
    <edge id=":gneJ21_7" function="internal">
        <lane id=":gneJ21_7_0" index="0" speed="13.71" length="30.49" width="3.10" shape="-322.25,20.63 -313.55,25.11 -307.34,30.09 -303.64,35.58 -302.43,41.58"/>
    </edge>
    <edge id=":gneJ21_8" function="internal">
        <lane id=":gneJ21_8_0" index="0" speed="10.34" length="17.04" width="2.95" shape="-314.03,41.51 -314.81,39.00 -317.19,36.44 -321.16,33.83 -326.72,31.16"/>
    </edge>
    <edge id=":gneJ21_9" function="internal">
        <lane id=":gneJ21_9_0" index="0" speed="13.89" length="30.91" width="3.15" shape="-314.03,41.51 -314.51,32.30 -315.30,25.91 -315.23,19.65 -313.09,10.87"/>
        <lane id=":gneJ21_9_1" index="1" speed="13.89" length="30.91" width="3.45" shape="-310.78,41.53 -311.23,32.34 -311.95,25.95 -311.81,19.71 -309.64,10.94"/>
        <lane id=":gneJ21_9_2" index="2" speed="13.89" length="30.91" width="3.25" shape="-307.53,41.55 -307.94,32.37 -308.57,26.00 -308.34,19.76 -306.14,11.01"/>
    </edge>
    <edge id=":gneJ27_0" function="internal">
        <lane id=":gneJ27_0_0" index="0" speed="9.74" length="16.06" width="3.20" shape="-207.07,-238.28 -209.59,-237.52 -212.00,-235.25 -214.28,-231.48 -216.44,-226.19"/>
    </edge>
    <edge id=":gneJ27_1" function="internal">
        <lane id=":gneJ27_1_0" index="0" speed="13.89" length="30.91" width="3.15" shape="-207.07,-238.28 -237.97,-238.09"/>
        <lane id=":gneJ27_1_1" index="1" speed="13.89" length="30.91" width="3.35" shape="-207.07,-241.45 -237.98,-241.34"/>
        <lane id=":gneJ27_1_2" index="2" speed="13.89" length="30.91" width="3.20" shape="-207.07,-244.58 -237.98,-244.62"/>
    </edge>
    <edge id=":gneJ27_4" function="internal">
        <lane id=":gneJ27_4_0" index="0" speed="13.89" length="30.91" width="2.95" shape="-237.99,-256.05 -207.08,-256.10"/>
        <lane id=":gneJ27_4_1" index="1" speed="13.89" length="30.91" width="3.35" shape="-237.99,-252.88 -207.07,-252.95"/>
        <lane id=":gneJ27_4_2" index="2" speed="13.89" length="30.91" width="2.95" shape="-237.98,-249.63 -207.07,-249.80"/>
    </edge>
    <edge id=":gneJ27_7" function="internal">
        <lane id=":gneJ27_7_0" index="0" speed="11.16" length="14.49" width="3.55" shape="-237.98,-249.63 -227.60,-248.28 -224.17,-246.20"/>
    </edge>
    <edge id=":gneJ27_8" function="internal">
        <lane id=":gneJ27_8_0" index="0" speed="10.61" length="12.73" width="3.25" shape="-237.98,-249.63 -228.84,-248.25 -226.02,-246.20"/>
    </edge>
    <edge id=":gneJ27_12" function="internal">
        <lane id=":gneJ27_12_0" index="0" speed="11.16" length="21.46" width="3.55" shape="-224.17,-246.20 -220.81,-244.16 -218.01,-237.19 -219.63,-227.30"/>
    </edge>
    <edge id=":gneJ27_13" function="internal">
        <lane id=":gneJ27_13_0" index="0" speed="10.61" length="19.68" width="3.25" shape="-226.02,-246.20 -223.20,-244.16 -221.16,-237.51 -222.84,-228.42"/>
    </edge>
    <edge id=":gneJ27_9" function="internal">
        <lane id=":gneJ27_9_0" index="0" speed="5.88" length="9.05" width="3.15" shape="-233.80,-232.23 -233.29,-234.80 -233.82,-236.63 -235.38,-237.73 -237.97,-238.09"/>
    </edge>
    <edge id=":gneJ27_10" function="internal">
        <lane id=":gneJ27_10_0" index="0" speed="13.89" length="34.37" width="3.35" shape="-230.68,-231.15 -226.36,-240.68 -220.99,-247.50 -214.56,-251.58 -207.07,-252.95"/>
    </edge>
    <edge id=":gneJ27_11" function="internal">
        <lane id=":gneJ27_11_0" index="0" speed="13.26" length="30.36" width="2.95" shape="-227.52,-230.05 -223.66,-238.69 -218.97,-244.86 -213.44,-248.56 -207.07,-249.80"/>
    </edge>
    <edge id=":gneJ52_0" function="internal">
        <lane id=":gneJ52_0_0" index="0" speed="13.89" length="29.25" width="3.33" shape="-14.00,285.53 -14.00,256.28"/>
        <lane id=":gneJ52_0_1" index="1" speed="13.89" length="29.25" width="3.50" shape="-10.58,285.53 -10.58,256.28"/>
        <lane id=":gneJ52_0_2" index="2" speed="13.89" length="29.25" width="3.55" shape="-7.06,285.53 -7.05,256.28"/>
    </edge>
    <edge id=":gneJ52_3" function="internal">
        <lane id=":gneJ52_3_0" index="0" speed="6.53" length="9.09" width="3.35" shape="17.63,279.94 15.15,280.28 13.37,281.33 12.31,283.08 11.95,285.53"/>
    </edge>
    <edge id=":gneJ52_4" function="internal">
        <lane id=":gneJ52_4_0" index="0" speed="13.89" length="37.30" width="3.55" shape="17.63,276.66 -19.66,276.21"/>
        <lane id=":gneJ52_4_1" index="1" speed="13.89" length="37.30" width="3.55" shape="17.63,273.49 -19.66,272.66"/>
    </edge>
    <edge id=":gneJ52_6" function="internal">
        <lane id=":gneJ52_6_0" index="0" speed="12.12" length="33.99" width="3.55" shape="17.63,273.49 6.83,272.41 -0.88,269.18 -5.51,263.81 -7.05,256.28"/>
    </edge>
    <edge id=":gneJ52_7" function="internal">
        <lane id=":gneJ52_7_0" index="0" speed="6.54" length="9.10" width="3.20" shape="11.95,256.28 12.31,258.73 13.37,260.48 15.15,261.53 17.63,261.89"/>
    </edge>
    <edge id=":gneJ52_8" function="internal">
        <lane id=":gneJ52_8_0" index="0" speed="13.89" length="29.25" width="3.35" shape="8.61,256.28 8.61,285.53"/>
        <lane id=":gneJ52_8_1" index="1" speed="13.89" length="29.25" width="3.28" shape="3.39,256.28 3.39,285.53"/>
        <lane id=":gneJ52_8_2" index="2" speed="13.89" length="29.25" width="3.55" shape="-0.03,256.28 -0.03,285.53"/>
        <lane id=":gneJ52_8_3" index="3" speed="13.89" length="29.25" width="3.48" shape="-3.54,256.28 -3.54,285.53"/>
    </edge>
    <edge id=":gneJ52_12" function="internal">
        <lane id=":gneJ52_12_0" index="0" speed="13.89" length="37.31" width="3.20" shape="-19.67,262.14 17.63,261.89"/>
        <lane id=":gneJ52_12_1" index="1" speed="13.89" length="37.31" width="3.35" shape="-19.67,265.64 17.63,265.16"/>
        <lane id=":gneJ52_12_2" index="2" speed="13.89" length="37.31" width="2.95" shape="-19.67,269.14 17.63,268.31"/>
    </edge>
    <edge id=":gneJ54_0" function="internal">
        <lane id=":gneJ54_0_0" index="0" speed="13.89" length="29.46" width="3.33" shape="-14.00,-232.66 -14.00,-262.13"/>
        <lane id=":gneJ54_0_1" index="1" speed="13.89" length="29.46" width="3.50" shape="-10.58,-232.66 -10.58,-262.13"/>
        <lane id=":gneJ54_0_2" index="2" speed="13.89" length="29.46" width="3.55" shape="-7.05,-232.66 -7.05,-262.13"/>
    </edge>
    <edge id=":gneJ54_3" function="internal">
        <lane id=":gneJ54_3_0" index="0" speed="6.53" length="9.09" width="3.35" shape="17.63,-238.26 15.15,-237.91 13.37,-236.86 12.31,-235.12 11.95,-232.66"/>
    </edge>
    <edge id=":gneJ54_4" function="internal">
        <lane id=":gneJ54_4_0" index="0" speed="13.89" length="37.30" width="3.50" shape="17.63,-241.54 -19.66,-242.01"/>
        <lane id=":gneJ54_4_1" index="1" speed="13.89" length="37.30" width="3.50" shape="17.63,-244.69 -19.66,-245.51"/>
    </edge>
    <edge id=":gneJ54_6" function="internal">
        <lane id=":gneJ54_6_0" index="0" speed="12.15" length="34.16" width="3.55" shape="17.63,-244.69 6.83,-245.78 -0.88,-249.05 -5.51,-254.50 -7.05,-262.13"/>
    </edge>
    <edge id=":gneJ54_7" function="internal">
        <lane id=":gneJ54_7_0" index="0" speed="6.60" length="9.27" width="3.20" shape="11.95,-262.13 12.31,-259.58 13.38,-257.77 15.15,-256.68 17.64,-256.31"/>
    </edge>
    <edge id=":gneJ54_8" function="internal">
        <lane id=":gneJ54_8_0" index="0" speed="13.89" length="29.46" width="3.35" shape="8.61,-262.13 8.61,-232.66"/>
        <lane id=":gneJ54_8_1" index="1" speed="13.89" length="29.46" width="3.28" shape="3.39,-262.13 3.39,-232.66"/>
        <lane id=":gneJ54_8_2" index="2" speed="13.89" length="29.46" width="3.55" shape="-0.03,-262.13 -0.03,-232.66"/>
        <lane id=":gneJ54_8_3" index="3" speed="13.89" length="29.46" width="3.48" shape="-3.54,-262.13 -3.54,-232.66"/>
    </edge>
    <edge id=":gneJ54_12" function="internal">
        <lane id=":gneJ54_12_0" index="0" speed="13.89" length="37.31" width="3.20" shape="-19.67,-256.31 17.64,-256.31"/>
        <lane id=":gneJ54_12_1" index="1" speed="13.89" length="37.31" width="3.35" shape="-19.67,-252.69 17.63,-253.04"/>
        <lane id=":gneJ54_12_2" index="2" speed="13.89" length="37.31" width="3.00" shape="-19.67,-249.07 17.63,-249.86"/>
    </edge>
    <edge id=":gneJ56_0" function="internal">
        <lane id=":gneJ56_0_0" index="0" speed="6.54" length="9.08" width="3.00" shape="-64.88,-232.75 -65.24,-235.20 -66.30,-236.94 -68.08,-237.99 -70.56,-238.34"/>
    </edge>
    <edge id=":gneJ56_1" function="internal">
        <lane id=":gneJ56_1_0" index="0" speed="13.89" length="29.36" width="3.35" shape="-61.53,-232.75 -61.53,-262.11"/>
        <lane id=":gneJ56_1_1" index="1" speed="13.89" length="29.36" width="3.28" shape="-56.32,-232.75 -56.32,-262.11"/>
        <lane id=":gneJ56_1_2" index="2" speed="13.89" length="29.36" width="3.55" shape="-52.91,-232.75 -52.91,-262.11"/>
        <lane id=":gneJ56_1_3" index="3" speed="13.89" length="29.36" width="3.48" shape="-49.39,-232.75 -49.39,-262.11"/>
    </edge>
    <edge id=":gneJ56_5" function="internal">
        <lane id=":gneJ56_5_0" index="0" speed="13.89" length="37.30" width="3.00" shape="-33.26,-238.51 -70.56,-238.34"/>
        <lane id=":gneJ56_5_1" index="1" speed="13.89" length="37.30" width="3.35" shape="-33.26,-242.01 -70.56,-241.51"/>
        <lane id=":gneJ56_5_2" index="2" speed="13.89" length="37.30" width="2.90" shape="-33.26,-245.51 -70.56,-244.64"/>
    </edge>
    <edge id=":gneJ56_8" function="internal">
        <lane id=":gneJ56_8_0" index="0" speed="13.89" length="29.36" width="3.33" shape="-38.94,-262.11 -38.94,-232.75"/>
        <lane id=":gneJ56_8_1" index="1" speed="13.89" length="29.36" width="3.50" shape="-42.35,-262.11 -42.35,-232.75"/>
        <lane id=":gneJ56_8_2" index="2" speed="13.89" length="29.36" width="3.55" shape="-45.88,-262.11 -45.88,-232.75"/>
    </edge>
    <edge id=":gneJ56_11" function="internal">
        <lane id=":gneJ56_11_0" index="0" speed="6.59" length="9.38" width="3.35" shape="-70.57,-256.16 -68.08,-256.54 -66.31,-257.65 -65.24,-259.51 -64.88,-262.11"/>
    </edge>
    <edge id=":gneJ56_12" function="internal">
        <lane id=":gneJ56_12_0" index="0" speed="8.65" length="16.84" width="3.28" shape="-70.57,-256.16 -64.34,-256.54 -59.88,-257.66 -57.21,-259.51 -56.32,-262.11"/>
    </edge>
    <edge id=":gneJ56_13" function="internal">
        <lane id=":gneJ56_13_0" index="0" speed="13.89" length="37.31" width="3.62" shape="-70.57,-253.01 -33.27,-252.69"/>
        <lane id=":gneJ56_13_1" index="1" speed="13.89" length="37.31" width="3.62" shape="-70.57,-249.86 -33.27,-249.07"/>
    </edge>
    <edge id=":gneJ56_15" function="internal">
        <lane id=":gneJ56_15_0" index="0" speed="12.11" length="33.93" width="3.55" shape="-70.57,-249.86 -59.76,-248.80 -52.05,-245.59 -47.42,-240.24 -45.88,-232.75"/>
    </edge>
    <edge id=":gneJ8_0" function="internal">
        <lane id=":gneJ8_0_0" index="0" speed="6.58" length="9.21" width="3.20" shape="-64.88,285.55 -65.24,283.03 -66.30,281.24 -68.08,280.16 -70.56,279.80"/>
    </edge>
    <edge id=":gneJ8_1" function="internal">
        <lane id=":gneJ8_1_0" index="0" speed="13.89" length="29.25" width="3.35" shape="-61.53,285.55 -61.53,256.30"/>
        <lane id=":gneJ8_1_1" index="1" speed="13.89" length="29.25" width="3.28" shape="-56.32,285.55 -56.32,256.30"/>
        <lane id=":gneJ8_1_2" index="2" speed="13.89" length="29.25" width="3.55" shape="-52.91,285.55 -52.91,256.30"/>
        <lane id=":gneJ8_1_3" index="3" speed="13.89" length="29.25" width="3.48" shape="-49.39,285.55 -49.39,256.30"/>
    </edge>
    <edge id=":gneJ8_5" function="internal">
        <lane id=":gneJ8_5_0" index="0" speed="13.89" length="37.30" width="3.20" shape="-33.26,279.77 -70.56,279.80"/>
        <lane id=":gneJ8_5_1" index="1" speed="13.89" length="37.30" width="3.40" shape="-33.26,276.22 -70.56,276.50"/>
        <lane id=":gneJ8_5_2" index="2" speed="13.89" length="37.30" width="3.00" shape="-33.26,272.67 -70.56,273.30"/>
    </edge>
    <edge id=":gneJ8_8" function="internal">
        <lane id=":gneJ8_8_0" index="0" speed="13.89" length="29.25" width="3.33" shape="-38.94,256.30 -38.94,285.55"/>
        <lane id=":gneJ8_8_1" index="1" speed="13.89" length="29.25" width="3.50" shape="-42.35,256.30 -42.35,285.55"/>
        <lane id=":gneJ8_8_2" index="2" speed="13.89" length="29.25" width="3.55" shape="-45.88,256.30 -45.88,285.55"/>
    </edge>
    <edge id=":gneJ8_11" function="internal">
        <lane id=":gneJ8_11_0" index="0" speed="6.50" length="9.05" width="3.35" shape="-70.56,261.85 -68.08,261.50 -66.30,260.46 -65.24,258.73 -64.88,256.30"/>
    </edge>
    <edge id=":gneJ8_12" function="internal">
        <lane id=":gneJ8_12_0" index="0" speed="13.89" length="37.30" width="3.50" shape="-70.56,265.07 -33.27,265.64"/>
        <lane id=":gneJ8_12_1" index="1" speed="13.89" length="37.30" width="3.50" shape="-70.56,268.38 -33.27,269.14"/>
    </edge>
    <edge id=":gneJ8_14" function="internal">
        <lane id=":gneJ8_14_0" index="0" speed="12.13" length="33.97" width="3.55" shape="-70.56,268.38 -59.76,269.45 -52.05,272.67 -47.42,278.03 -45.88,285.55"/>
    </edge>

    <edge id="-gneE134" from="gneJ54" to="gneJ52" priority="-1" shape="-5.28,-247.27 217.67,-247.21 231.34,-246.67 244.96,-245.58 258.26,-243.89 271.36,-241.54 284.26,-238.50 296.93,-234.69 309.31,-230.39 321.44,-225.44 333.13,-219.95 344.59,-213.81 355.67,-207.23 366.40,-200.14 376.72,-192.38 386.72,-184.29 396.24,-175.68 405.23,-166.69 413.78,-157.07 422.01,-147.13 429.60,-136.94 436.74,-126.21 443.44,-115.10 449.45,-103.67 454.99,-91.92 459.88,-79.83 464.24,-67.50 467.97,-54.87 471.01,-41.97 473.52,-28.83 475.25,-15.51 476.29,-1.91 476.57,11.76 476.54,25.41 475.23,39.20 473.69,52.30 471.15,65.47 468.22,78.41 464.37,91.19 459.91,103.61 455.16,115.20 449.53,127.29 443.55,138.94 436.85,149.83 429.78,160.64 422.00,170.96 413.97,180.98 405.36,190.40 396.32,199.50 386.90,208.10 376.93,216.16 366.42,223.95 355.75,231.14 344.85,237.57 333.36,243.61 321.60,249.22 309.39,254.07 297.08,258.48 284.45,262.24 271.54,265.18 258.41,267.69 245.01,269.43 231.45,270.47 217.76,270.93 -5.28,270.88">
        <lane id="-gneE134_0" index="0" speed="13.89" length="1227.87" width="3.20" shape="17.64,-256.31 217.85,-256.26 231.88,-255.71 245.89,-254.58 259.63,-252.84 273.20,-250.40 286.60,-247.25 299.72,-243.30 312.51,-238.86 325.08,-233.73 337.19,-228.04 349.04,-221.69 360.48,-214.90 371.62,-207.54 382.29,-199.52 392.61,-191.17 402.48,-182.24 411.82,-172.90 420.65,-162.96 429.13,-152.72 437.00,-142.15 444.39,-131.06 451.33,-119.55 457.55,-107.71 463.28,-95.55 468.35,-83.04 472.85,-70.29 476.72,-57.19 479.86,-43.86 482.46,-30.26 484.26,-16.44 485.33,-2.35 485.62,11.68 485.59,25.85 484.23,40.16 482.64,53.69 480.01,67.33 476.98,80.72 472.97,94.03 468.36,106.86 463.45,118.83 457.66,131.27 451.44,143.38 444.49,154.68 437.19,165.85 429.15,176.51 420.85,186.87 411.91,196.64 402.58,206.03 392.80,214.97 382.47,223.32 371.65,231.34 360.58,238.80 349.26,245.48 337.42,251.70 325.22,257.52 312.59,262.54 299.90,267.08 286.75,271.00 273.39,274.04 259.84,276.63 245.94,278.44 231.95,279.51 217.91,279.98 17.63,279.94"/>
        <lane id="-gneE134_1" index="1" speed="13.89" length="1227.87" width="3.35" shape="17.63,-253.04 217.78,-252.98 231.68,-252.44 245.55,-251.33 259.13,-249.60 272.53,-247.20 285.76,-244.08 298.71,-240.19 311.35,-235.79 323.76,-230.73 335.72,-225.11 347.43,-218.84 358.74,-212.12 369.73,-204.86 380.27,-196.93 390.48,-188.68 400.22,-179.87 409.43,-170.65 418.16,-160.83 426.55,-150.70 434.32,-140.27 441.62,-129.30 448.47,-117.94 454.62,-106.25 460.28,-94.24 465.28,-81.88 469.74,-69.28 473.55,-56.35 476.66,-43.17 479.22,-29.74 481.00,-16.10 482.06,-2.19 482.35,11.71 482.31,25.69 480.97,39.81 479.40,53.19 476.80,66.65 473.81,79.88 469.86,93.00 465.30,105.68 460.45,117.52 454.72,129.83 448.59,141.78 441.73,152.92 434.51,163.96 426.56,174.50 418.36,184.74 409.54,194.38 400.32,203.67 390.67,212.48 380.47,220.73 369.75,228.67 358.83,236.03 347.66,242.62 335.95,248.77 323.91,254.52 311.43,259.47 298.88,263.97 285.92,267.83 272.72,270.83 259.32,273.39 245.60,275.18 231.77,276.24 217.86,276.71 17.63,276.66"/>
        <lane id="-gneE134_2" index="2" speed="13.89" length="1227.87" width="3.00" shape="17.63,-249.86 217.72,-249.81 231.50,-249.27 245.23,-248.17 258.65,-246.46 271.89,-244.09 284.93,-241.01 297.73,-237.16 310.23,-232.82 322.48,-227.82 334.30,-222.27 345.87,-216.07 357.05,-209.43 367.90,-202.27 378.32,-194.43 388.41,-186.27 398.03,-177.56 407.12,-168.47 415.75,-158.76 424.06,-148.74 431.73,-138.44 438.94,-127.60 445.71,-116.38 451.78,-104.83 457.37,-92.96 462.31,-80.75 466.71,-68.30 470.48,-55.54 473.55,-42.51 476.09,-29.24 477.84,-15.78 478.89,-2.04 479.17,11.74 479.14,25.54 477.82,39.47 476.26,52.70 473.70,66.00 470.74,79.07 466.84,92.00 462.34,104.54 457.54,116.24 451.87,128.43 445.82,140.22 439.05,151.22 431.91,162.14 424.05,172.56 415.95,182.67 407.24,192.19 398.12,201.38 388.60,210.07 378.52,218.22 367.92,226.07 357.14,233.34 346.12,239.84 334.53,245.93 322.64,251.60 310.31,256.50 297.89,260.95 285.11,264.76 272.07,267.73 258.82,270.26 245.28,272.02 231.59,273.07 217.80,273.53 17.63,273.49"/>
        <lane id="-gneE134_3" index="3" disallow="all" speed="13.89" length="1227.87" width="1.10" shape="17.63,-247.81 217.68,-247.76 231.37,-247.22 245.02,-246.13 258.34,-244.43 271.47,-242.08 284.40,-239.03 297.10,-235.21 309.50,-230.90 321.66,-225.94 333.38,-220.44 344.86,-214.29 355.96,-207.70 366.72,-200.59 377.06,-192.81 387.08,-184.71 396.62,-176.08 405.63,-167.07 414.20,-157.43 422.44,-147.47 430.05,-137.26 437.20,-126.50 443.92,-115.37 449.94,-103.92 455.49,-92.14 460.39,-80.02 464.76,-67.67 468.50,-55.01 471.55,-42.08 474.06,-28.92 475.80,-15.57 476.84,-1.94 477.12,11.75 477.09,25.44 475.78,39.26 474.23,52.38 471.69,65.58 468.75,78.55 464.89,91.36 460.42,103.81 455.66,115.42 450.02,127.53 444.03,139.21 437.31,150.12 430.23,160.96 422.43,171.30 414.39,181.34 405.76,190.78 396.70,199.90 387.26,208.52 377.27,216.59 366.74,224.40 356.04,231.61 345.12,238.05 333.61,244.10 321.82,249.72 309.58,254.58 297.25,259.00 284.59,262.77 271.65,265.72 258.50,268.23 245.07,269.98 231.48,271.02 217.77,271.48 17.63,271.44"/>
    </edge>
    <edge id="-gneE135" from="gneJ54" to="gneJ52" priority="-1">
        <lane id="-gneE135_0" index="0" speed="13.89" length="488.95" width="3.35" shape="11.95,-232.66 11.95,256.28"/>
        <lane id="-gneE135_1" index="1" speed="13.89" length="488.95" width="3.35" shape="8.61,-232.66 8.61,256.28"/>
        <lane id="-gneE135_2" index="2" disallow="all" speed="13.89" length="488.95" width="1.90" shape="5.98,-232.66 5.98,256.28"/>
        <lane id="-gneE135_3" index="3" speed="13.89" length="488.95" width="3.28" shape="3.39,-232.66 3.39,256.28"/>
        <lane id="-gneE135_4" index="4" speed="13.89" length="488.95" width="3.55" shape="-0.03,-232.66 -0.03,256.28"/>
        <lane id="-gneE135_5" index="5" speed="13.89" length="488.95" width="3.48" shape="-3.54,-232.66 -3.54,256.28"/>
    </edge>
    <edge id="-gneE136" from="gneJ21" to="gneJ16" priority="-1" shape="-304.91,30.74 -305.01,46.27 -304.90,270.90">
        <lane id="-gneE136_0" index="0" speed="13.89" length="214.71" width="3.20" shape="-295.88,41.62 -295.91,46.30 -295.81,256.30"/>
        <lane id="-gneE136_1" index="1" speed="13.89" length="214.71" width="3.40" shape="-299.18,41.60 -299.21,46.29 -299.11,256.30"/>
        <lane id="-gneE136_2" index="2" speed="13.89" length="214.71" width="3.10" shape="-302.43,41.58 -302.46,46.28 -302.36,256.30"/>
        <lane id="-gneE136_3" index="3" disallow="all" speed="13.89" length="214.71" width="1.00" shape="-304.48,41.57 -304.51,46.27 -304.41,256.30"/>
    </edge>
    <edge id="-gneE137" from="gneJ21" to="gneJ27" priority="-1" shape="-304.91,30.74 -304.70,14.57 -227.71,-221.95 -218.94,-247.17">
        <lane id="-gneE137_0" index="0" speed="13.89" length="254.20" width="3.15" shape="-313.09,10.87 -236.36,-224.86 -233.80,-232.23"/>
        <lane id="-gneE137_1" index="1" speed="13.89" length="254.20" width="3.45" shape="-309.64,10.94 -233.23,-223.81 -230.68,-231.15"/>
        <lane id="-gneE137_2" index="2" speed="13.89" length="254.20" width="3.25" shape="-306.14,11.01 -230.06,-222.74 -227.52,-230.05"/>
        <lane id="-gneE137_3" index="3" disallow="all" speed="13.89" length="254.20" width="0.85" shape="-304.00,11.05 -228.11,-222.09 -225.58,-229.37"/>
    </edge>
    <edge id="-gneE50" from="gneJ27" to="gneJ21" priority="-1" shape="-218.94,-247.17 -246.97,-247.14 -322.75,-247.10 -330.09,-246.47 -336.95,-245.55 -343.76,-244.24 -356.90,-240.66 -369.64,-235.77 -381.85,-229.49 -393.33,-222.17 -404.00,-213.58 -413.59,-203.92 -422.25,-193.37 -427.80,-184.85 -432.96,-175.61 -438.43,-163.21 -442.82,-150.27 -445.63,-136.79 -447.17,-123.23 -447.09,-109.52 -445.67,-95.93 -442.86,-82.52 -438.62,-69.47 -433.19,-57.10 -426.33,-45.17 -418.21,-34.04 -408.96,-23.79 -398.76,-14.63 -387.67,-6.69 -375.88,0.13 -369.68,3.01 -329.76,20.19 -304.91,30.74">
        <lane id="-gneE50_0" index="0" speed="13.89" length="472.71" width="3.15" shape="-237.97,-238.09 -246.96,-238.09 -322.36,-238.05 -329.10,-237.47 -335.49,-236.61 -341.71,-235.41 -354.08,-232.04 -365.94,-227.49 -377.34,-221.63 -388.04,-214.80 -397.93,-206.84 -406.86,-197.84 -414.93,-188.01 -420.04,-180.17 -424.85,-171.57 -429.98,-159.92 -434.07,-147.88 -436.68,-135.35 -438.11,-122.74 -438.04,-110.02 -436.71,-97.33 -434.10,-84.85 -430.15,-72.70 -425.10,-61.19 -418.73,-50.11 -411.17,-39.76 -402.56,-30.21 -393.08,-21.70 -382.76,-14.31 -371.70,-7.91 -365.98,-5.26 -326.20,11.86 -319.70,14.62"/>
        <lane id="-gneE50_1" index="1" speed="13.89" length="472.71" width="3.35" shape="-237.98,-241.34 -246.97,-241.34 -322.50,-241.30 -329.46,-240.70 -336.02,-239.82 -342.45,-238.58 -355.09,-235.14 -367.27,-230.46 -378.96,-224.45 -389.94,-217.45 -400.11,-209.26 -409.28,-200.02 -417.56,-189.93 -422.83,-181.85 -427.76,-173.02 -433.02,-161.10 -437.21,-148.74 -439.89,-135.87 -441.36,-122.92 -441.29,-109.84 -439.93,-96.83 -437.24,-84.02 -433.19,-71.54 -428.00,-59.72 -421.45,-48.34 -413.70,-37.71 -404.85,-27.91 -395.12,-19.16 -384.52,-11.57 -373.20,-5.03 -367.31,-2.29 -327.48,14.85 -320.97,17.62"/>
        <lane id="-gneE50_2" index="2" speed="13.89" length="472.71" width="3.20" shape="-237.98,-244.62 -246.97,-244.61 -322.64,-244.57 -329.81,-243.95 -336.54,-243.05 -343.19,-241.77 -356.11,-238.25 -368.61,-233.46 -380.59,-227.29 -391.85,-220.11 -402.30,-211.70 -411.71,-202.22 -420.21,-191.87 -425.63,-183.54 -430.69,-174.48 -436.07,-162.29 -440.37,-149.60 -443.13,-136.39 -444.64,-123.09 -444.56,-109.66 -443.17,-96.32 -440.41,-83.17 -436.25,-70.37 -430.93,-58.24 -424.21,-46.55 -416.24,-35.64 -407.17,-25.58 -397.17,-16.61 -386.30,-8.82 -374.71,-2.12 -368.65,0.70 -328.77,17.86 -322.25,20.63"/>
        <lane id="-gneE50_3" index="3" disallow="all" speed="13.89" length="472.71" width="0.93" shape="-237.98,-246.68 -246.97,-246.68 -322.73,-246.64 -330.04,-246.01 -336.88,-245.09 -343.65,-243.79 -356.76,-240.22 -369.45,-235.34 -381.62,-229.09 -393.06,-221.79 -403.69,-213.23 -413.24,-203.61 -421.87,-193.09 -427.40,-184.61 -432.54,-175.40 -438.00,-163.04 -442.37,-150.15 -445.17,-136.72 -446.70,-123.21 -446.63,-109.55 -445.21,-96.00 -442.41,-82.64 -438.18,-69.64 -432.77,-57.31 -425.94,-45.42 -417.85,-34.33 -408.63,-24.12 -398.47,-14.99 -387.42,-7.08 -375.67,-0.28 -369.49,2.59 -329.58,19.76 -323.06,22.53"/>
    </edge>
    <edge id="gneE112" from="gneJ51" to="gneJ52" priority="-1">
        <lane id="gneE112_0" index="0" disallow="all" speed="13.89" length="302.92" width="10.80" shape="-21.06,588.45 -21.06,285.53"/>
        <lane id="gneE112_1" index="1" speed="13.89" length="302.92" width="3.33" shape="-14.00,588.45 -14.00,285.53"/>
        <lane id="gneE112_2" index="2" speed="13.89" length="302.92" width="3.50" shape="-10.58,588.45 -10.58,285.53"/>
        <lane id="gneE112_3" index="3" speed="13.89" length="302.92" width="3.55" shape="-7.06,588.45 -7.06,285.53"/>
    </edge>
    <edge id="gneE113" from="gneJ52" to="gneJ51" priority="-1">
        <lane id="gneE113_0" index="0" speed="13.89" length="302.92" width="3.35" shape="11.95,285.53 11.95,588.45"/>
        <lane id="gneE113_1" index="1" speed="13.89" length="302.92" width="3.35" shape="8.61,285.53 8.61,588.45"/>