<?xml version="1.0" encoding="UTF-8"?>

<!-- generated on 01/10/20 14:57:33 by Eclipse SUMO netedit Version 1.2.0
<configuration xmlns:xsi="http://www.w3.org/2001/XMLSchema-instance" xsi:noNamespaceSchemaLocation="http://sumo.dlr.de/xsd/netconvertConfiguration.xsd">

    <input>
        <sumo-net-file value="F:\Work\sumo%20line\stop\Parking.net.xml"/>
    </input>

    <output>
        <output-file value="F:\Work\sumo%20line\stop\Parking.net.xml"/>
    </output>

    <processing>
        <geometry.max-grade.fix value="false"/>
        <offset.disable-normalization value="true"/>
        <lefthand value="false"/>
    </processing>

    <junctions>
        <no-turnarounds value="true"/>
        <junctions.corner-detail value="5"/>
        <junctions.limit-turn-speed value="5.5"/>
        <rectangular-lane-cut value="false"/>
    </junctions>

    <pedestrian>
        <walkingareas value="false"/>
    </pedestrian>

</configuration>
-->

<net version="1.1" junctionCornerDetail="5" limitTurnSpeed="5.50" xmlns:xsi="http://www.w3.org/2001/XMLSchema-instance" xsi:noNamespaceSchemaLocation="http://sumo.dlr.de/xsd/net_file.xsd">

    <location netOffset="0.00,0.00" convBoundary="-193.10,-241.10,217.09,123.51" origBoundary="-10000000000.00,-10000000000.00,10000000000.00,10000000000.00" projParameter="!"/>

    <edge id=":gneJ1_0" function="internal">
        <lane id=":gneJ1_0_0" index="0" speed="7.06" length="9.92" width="4.07" shape="-180.89,3.95 -183.55,4.33 -185.50,5.47 -186.75,7.36 -187.30,10.01"/>
    </edge>
    <edge id=":gneJ1_1" function="internal">
        <lane id=":gneJ1_1_0" index="0" speed="8.65" length="16.49" width="3.93" shape="-180.89,3.95 -185.22,3.29 -188.29,1.30 -190.11,-2.02 -190.68,-6.66"/>
    </edge>
    <edge id=":gneJ1_2" function="internal">
        <lane id=":gneJ1_2_0" index="0" speed="6.79" length="9.77" width="4.35" shape="-186.79,-6.62 -186.44,-3.91 -185.34,-1.97 -183.50,-0.81 -180.89,-0.42"/>
    </edge>
    <edge id=":gneJ1_3" function="internal">
        <lane id=":gneJ1_3_0" index="0" speed="13.89" length="16.64" width="4.07" shape="-186.79,-6.62 -187.30,10.01"/>
    </edge>
    <edge id=":gneJ1_4" function="internal">
        <lane id=":gneJ1_4_0" index="0" speed="13.89" length="16.42" width="3.93" shape="-191.34,9.75 -190.68,-6.66"/>
    </edge>
    <edge id=":gneJ1_5" function="internal">
        <lane id=":gneJ1_5_0" index="0" speed="8.83" length="6.97" width="4.35" shape="-191.34,9.75 -190.44,5.30 -189.12,3.25"/>
    </edge>
    <edge id=":gneJ1_6" function="internal">
        <lane id=":gneJ1_6_0" index="0" speed="8.83" length="9.42" width="4.35" shape="-189.12,3.25 -188.40,2.12 -185.22,0.21 -180.89,-0.42"/>
    </edge>
    <edge id=":gneJ10_0" function="internal">
        <lane id=":gneJ10_0_0" index="0" speed="5.90" length="11.00" width="4.30" shape="180.10,-36.69 178.56,-39.84 176.90,-40.98 175.09,-40.12 173.14,-37.25"/>
    </edge>
    <edge id=":gneJ10_1" function="internal">
        <lane id=":gneJ10_1_0" index="0" speed="13.89" length="20.18" width="3.97" shape="180.10,-36.69 173.14,-55.63"/>
    </edge>
    <edge id=":gneJ10_2" function="internal">
        <lane id=":gneJ10_2_0" index="0" speed="13.89" length="20.34" width="4.00" shape="176.87,-57.12 183.85,-38.01"/>
    </edge>
    <edge id=":gneJ10_3" function="internal">
        <lane id=":gneJ10_3_0" index="0" speed="13.89" length="7.56" width="4.30" shape="176.87,-57.12 177.71,-53.18 177.45,-49.65"/>
    </edge>
    <edge id=":gneJ10_6" function="internal">
        <lane id=":gneJ10_6_0" index="0" speed="13.89" length="13.21" width="4.30" shape="177.45,-49.65 177.37,-48.55 175.85,-43.24 173.14,-37.25"/>
    </edge>
    <edge id=":gneJ10_4" function="internal">
        <lane id=":gneJ10_4_0" index="0" speed="12.83" length="17.19" width="3.97" shape="169.19,-39.30 171.66,-44.59 173.14,-49.08 173.64,-52.76 173.14,-55.63"/>
    </edge>
    <edge id=":gneJ10_5" function="internal">
        <lane id=":gneJ10_5_0" index="0" speed="8.26" length="23.20" width="4.00" shape="169.19,-39.30 173.29,-45.33 177.10,-47.13 180.62,-44.69 183.85,-38.01"/>
    </edge>
    <edge id=":gneJ2_0" function="internal">
        <lane id=":gneJ2_0_0" index="0" speed="13.89" length="15.63" width="4.40" shape="-78.28,3.95 -93.91,3.95"/>
    </edge>
    <edge id=":gneJ2_1" function="internal">
        <lane id=":gneJ2_1_0" index="0" speed="8.64" length="7.05" width="3.80" shape="-78.28,3.95 -82.58,3.27 -84.82,1.78"/>
    </edge>
    <edge id=":gneJ2_6" function="internal">
        <lane id=":gneJ2_6_0" index="0" speed="8.64" length="9.55" width="3.80" shape="-84.82,1.78 -85.62,1.24 -87.40,-2.14 -87.92,-6.87"/>
    </edge>
    <edge id=":gneJ2_2" function="internal">
        <lane id=":gneJ2_2_0" index="0" speed="6.77" length="9.82" width="4.50" shape="-84.11,-6.79 -83.79,-4.04 -82.72,-2.07 -80.88,-0.90 -78.28,-0.50"/>
    </edge>
    <edge id=":gneJ2_3" function="internal">
        <lane id=":gneJ2_3_0" index="0" speed="8.70" length="16.49" width="4.40" shape="-84.11,-6.79 -84.81,-2.09 -86.67,1.26 -89.71,3.28 -93.91,3.95"/>
    </edge>
    <edge id=":gneJ2_4" function="internal">
        <lane id=":gneJ2_4_0" index="0" speed="6.97" length="9.98" width="3.80" shape="-93.91,-0.42 -91.34,-0.83 -89.49,-2.04 -88.35,-4.05 -87.92,-6.87"/>
    </edge>
    <edge id=":gneJ2_5" function="internal">
        <lane id=":gneJ2_5_0" index="0" speed="13.89" length="15.63" width="4.50" shape="-93.91,-0.42 -78.28,-0.50"/>
    </edge>
    <edge id=":gneJ20_0" function="internal">
        <lane id=":gneJ20_0_0" index="0" speed="7.30" length="10.19" width="4.55" shape="29.50,101.36 26.70,101.90 24.64,103.13 23.35,105.03 22.80,107.61"/>
    </edge>
    <edge id=":gneJ20_1" function="internal">
        <lane id=":gneJ20_1_0" index="0" speed="8.88" length="17.03" width="4.64" shape="29.50,101.36 24.79,101.02 21.30,99.30 19.02,96.21 17.97,91.75"/>
    </edge>
    <edge id=":gneJ20_2" function="internal">
        <lane id=":gneJ20_2_0" index="0" speed="6.97" length="9.90" width="4.36" shape="22.56,91.36 23.17,93.97 24.49,95.78 26.50,96.79 29.22,96.99"/>
    </edge>
    <edge id=":gneJ20_3" function="internal">
        <lane id=":gneJ20_3_0" index="0" speed="13.89" length="16.26" width="4.55" shape="22.56,91.36 22.82,95.30 22.95,99.48 22.94,103.67 22.80,107.61"/>
    </edge>
    <edge id=":gneJ20_4" function="internal">
        <lane id=":gneJ20_4_0" index="0" speed="13.89" length="15.59" width="4.64" shape="17.96,107.33 18.15,103.49 18.24,99.54 18.19,95.58 17.97,91.75"/>
    </edge>
    <edge id=":gneJ20_5" function="internal">
        <lane id=":gneJ20_5_0" index="0" speed="9.26" length="7.52" width="4.36" shape="17.96,107.33 18.88,103.06 20.67,100.47"/>
    </edge>
    <edge id=":gneJ20_6" function="internal">
        <lane id=":gneJ20_6_0" index="0" speed="9.26" length="9.47" width="4.36" shape="20.67,100.47 21.06,99.92 24.51,97.89 29.22,96.99"/>
    </edge>
    <edge id=":gneJ21_0" function="internal">
        <lane id=":gneJ21_0_0" index="0" speed="13.89" length="18.28" width="4.03" shape="28.98,124.58 24.73,124.92 19.86,125.21 14.99,125.42 10.73,125.51"/>
    </edge>
    <edge id=":gneJ21_1" function="internal">
        <lane id=":gneJ21_1_0" index="0" speed="8.58" length="8.19" width="5.14" shape="28.98,124.58 23.73,124.38 21.08,123.11"/>
    </edge>
    <edge id=":gneJ21_6" function="internal">
        <lane id=":gneJ21_6_0" index="0" speed="8.58" length="9.87" width="5.14" shape="21.08,123.11 20.08,122.63 18.02,119.33 17.55,114.49"/>
    </edge>
    <edge id=":gneJ21_2" function="internal">
        <lane id=":gneJ21_2_0" index="0" speed="6.64" length="10.04" width="4.06" shape="22.38,114.77 22.63,117.53 23.75,119.41 25.74,120.41 28.60,120.54"/>
    </edge>
    <edge id=":gneJ21_3" function="internal">
        <lane id=":gneJ21_3_0" index="0" speed="9.22" length="17.82" width="4.03" shape="22.38,114.77 21.42,119.44 19.16,122.79 15.60,124.81 10.73,125.51"/>
    </edge>
    <edge id=":gneJ21_4" function="internal">
        <lane id=":gneJ21_4_0" index="0" speed="7.36" length="10.99" width="5.14" shape="10.70,121.46 13.54,121.01 15.63,119.69 16.97,117.52 17.55,114.49"/>
    </edge>
    <edge id=":gneJ21_5" function="internal">
        <lane id=":gneJ21_5_0" index="0" speed="13.89" length="17.92" width="4.06" shape="10.70,121.46 14.91,121.37 19.66,121.16 24.40,120.88 28.60,120.54"/>
    </edge>
    <edge id=":gneJ23_0" function="internal">
        <lane id=":gneJ23_0_0" index="0" speed="7.98" length="11.79" width="4.40" shape="209.82,65.60 208.91,63.06 207.12,61.20 204.45,60.03 200.89,59.54"/>
    </edge>
    <edge id=":gneJ23_1" function="internal">
        <lane id=":gneJ23_1_0" index="0" speed="13.89" length="17.33" width="3.97" shape="209.82,65.60 209.07,61.56 208.09,57.11 206.99,52.70 205.89,48.73"/>
    </edge>
    <edge id=":gneJ23_2" function="internal">
        <lane id=":gneJ23_2_0" index="0" speed="13.89" length="17.85" width="4.06" shape="209.71,47.60 210.84,51.64 212.00,56.23 213.05,60.84 213.83,64.96"/>
    </edge>
    <edge id=":gneJ23_3" function="internal">
        <lane id=":gneJ23_3_0" index="0" speed="8.25" length="8.10" width="4.40" shape="209.71,47.60 210.53,52.99 209.74,55.52"/>
    </edge>
    <edge id=":gneJ23_6" function="internal">
        <lane id=":gneJ23_6_0" index="0" speed="8.25" length="10.48" width="4.40" shape="209.74,55.52 209.34,56.78 206.12,58.97 200.89,59.54"/>
    </edge>
    <edge id=":gneJ23_4" function="internal">
        <lane id=":gneJ23_4_0" index="0" speed="6.32" length="10.08" width="3.97" shape="201.05,55.17 203.91,54.86 205.67,53.68 206.33,51.64 205.89,48.73"/>
    </edge>
    <edge id=":gneJ23_5" function="internal">
        <lane id=":gneJ23_5_0" index="0" speed="9.65" length="17.65" width="4.06" shape="201.05,55.17 206.07,55.93 209.88,57.82 212.47,60.83 213.83,64.96"/>
    </edge>
    <edge id=":gneJ3_0" function="internal">
        <lane id=":gneJ3_0_0" index="0" speed="7.02" length="10.21" width="4.58" shape="29.60,3.84 26.86,4.24 24.89,5.44 23.69,7.42 23.26,10.20"/>
    </edge>
    <edge id=":gneJ3_1" function="internal">
        <lane id=":gneJ3_1_0" index="0" speed="13.89" length="17.22" width="4.40" shape="29.60,3.84 12.39,3.90"/>
    </edge>
    <edge id=":gneJ3_2" function="internal">
        <lane id=":gneJ3_2_0" index="0" speed="13.89" length="17.21" width="4.60" shape="12.39,-0.55 29.60,-0.61"/>
    </edge>
    <edge id=":gneJ3_3" function="internal">
        <lane id=":gneJ3_3_0" index="0" speed="8.88" length="7.92" width="4.58" shape="12.39,-0.55 17.20,0.12 19.84,1.68"/>
    </edge>
    <edge id=":gneJ3_6" function="internal">
        <lane id=":gneJ3_6_0" index="0" speed="8.88" length="9.57" width="4.58" shape="19.84,1.68 20.62,2.14 22.64,5.50 23.26,10.20"/>
    </edge>
    <edge id=":gneJ3_4" function="internal">
        <lane id=":gneJ3_4_0" index="0" speed="6.96" length="10.11" width="4.40" shape="18.65,10.13 18.29,7.41 17.13,5.46 15.16,4.29 12.39,3.90"/>
    </edge>
    <edge id=":gneJ3_5" function="internal">
        <lane id=":gneJ3_5_0" index="0" speed="8.97" length="17.43" width="4.60" shape="18.65,10.13 19.39,5.44 21.47,2.08 24.87,0.07 29.60,-0.61"/>
    </edge>
    <edge id=":gneJ7_0" function="internal">
        <lane id=":gneJ7_0_0" index="0" speed="8.56" length="11.45" width="3.83" shape="-76.73,-125.53 -78.90,-124.24 -80.48,-122.23 -81.46,-119.50 -81.83,-116.06"/>
    </edge>
    <edge id=":gneJ7_1" function="internal">
        <lane id=":gneJ7_1_0" index="0" speed="13.89" length="15.69" width="3.86" shape="-76.73,-125.53 -80.37,-124.26 -84.18,-123.11 -88.03,-122.08 -91.79,-121.18"/>
    </edge>
    <edge id=":gneJ7_2" function="internal">
        <lane id=":gneJ7_2_0" index="0" speed="13.89" length="15.13" width="4.10" shape="-92.64,-124.99 -88.97,-125.87 -85.31,-126.87 -81.69,-127.99 -78.13,-129.25"/>
    </edge>
    <edge id=":gneJ7_3" function="internal">
        <lane id=":gneJ7_3_0" index="0" speed="8.12" length="6.81" width="3.83" shape="-92.64,-124.99 -87.82,-125.36 -85.99,-124.62"/>
    </edge>
    <edge id=":gneJ7_6" function="internal">
        <lane id=":gneJ7_6_0" index="0" speed="8.12" length="10.25" width="3.83" shape="-85.99,-124.62 -84.42,-123.99 -82.42,-120.89 -81.83,-116.06"/>
    </edge>
    <edge id=":gneJ7_4" function="internal">
        <lane id=":gneJ7_4_0" index="0" speed="6.29" length="9.67" width="3.86" shape="-85.65,-116.14 -85.98,-118.87 -87.11,-120.63 -89.05,-121.40 -91.79,-121.18"/>
    </edge>
    <edge id=":gneJ7_5" function="internal">
        <lane id=":gneJ7_5_0" index="0" speed="10.04" length="16.10" width="4.10" shape="-85.65,-116.14 -85.09,-120.84 -83.66,-124.59 -81.34,-127.40 -78.13,-129.25"/>
    </edge>
    <edge id=":gneJ8_0" function="internal">
        <lane id=":gneJ8_0_0" index="0" speed="10.12" length="15.99" width="4.05" shape="145.60,-209.24 141.80,-207.45 138.98,-204.89 137.14,-201.56 136.27,-197.47"/>
    </edge>
    <edge id=":gneJ8_1" function="internal">
        <lane id=":gneJ8_1_0" index="0" speed="13.89" length="20.58" width="3.85" shape="145.60,-209.24 126.21,-202.34"/>
    </edge>
    <edge id=":gneJ8_2" function="internal">
        <lane id=":gneJ8_2_0" index="0" speed="8.05" length="19.00" width="4.00" shape="145.60,-209.24 140.08,-208.22 136.39,-209.42 134.52,-212.83 134.48,-218.44"/>
    </edge>
    <edge id=":gneJ8_3" function="internal">
        <lane id=":gneJ8_3_0" index="0" speed="6.10" length="10.12" width="4.10" shape="138.44,-217.93 138.47,-214.94 139.46,-213.12 141.42,-212.48 144.36,-213.02"/>
    </edge>
    <edge id=":gneJ8_4" function="internal">
        <lane id=":gneJ8_4_0" index="0" speed="13.89" length="20.57" width="4.05" shape="138.44,-217.93 136.27,-197.47"/>
    </edge>
    <edge id=":gneJ8_5" function="internal">
        <lane id=":gneJ8_5_0" index="0" speed="11.99" length="8.57" width="3.85" shape="138.44,-217.93 136.98,-213.36 134.96,-210.18"/>
    </edge>
    <edge id=":gneJ8_12" function="internal">
        <lane id=":gneJ8_12_0" index="0" speed="11.99" length="11.91" width="3.85" shape="134.96,-210.18 134.07,-208.75 130.29,-204.84 126.21,-202.34"/>
    </edge>
    <edge id=":gneJ8_6" function="internal">
        <lane id=":gneJ8_6_0" index="0" speed="10.84" length="16.57" width="4.00" shape="124.79,-206.05 128.59,-208.05 131.47,-210.78 133.43,-214.24 134.48,-218.44"/>
    </edge>
    <edge id=":gneJ8_7" function="internal">
        <lane id=":gneJ8_7_0" index="0" speed="13.89" length="20.77" width="4.10" shape="124.79,-206.05 144.36,-213.02"/>
    </edge>
    <edge id=":gneJ8_8" function="internal">
        <lane id=":gneJ8_8_0" index="0" speed="8.04" length="18.88" width="4.05" shape="124.79,-206.05 130.24,-207.33 133.97,-206.32 135.98,-203.04 136.27,-197.47"/>
    </edge>
    <edge id=":gneJ8_9" function="internal">
        <lane id=":gneJ8_9_0" index="0" speed="6.05" length="9.97" width="3.85" shape="132.27,-197.82 132.12,-200.75 131.06,-202.48 129.09,-203.01 126.21,-202.34"/>
    </edge>
    <edge id=":gneJ8_10" function="internal">
        <lane id=":gneJ8_10_0" index="0" speed="13.89" length="20.75" width="4.00" shape="132.27,-197.82 134.48,-218.44"/>
    </edge>
    <edge id=":gneJ8_11" function="internal">
        <lane id=":gneJ8_11_0" index="0" speed="11.32" length="9.03" width="4.10" shape="132.27,-197.82 133.59,-202.37 135.87,-206.01"/>
    </edge>
    <edge id=":gneJ8_13" function="internal">
        <lane id=":gneJ8_13_0" index="0" speed="11.32" length="11.16" width="4.10" shape="135.87,-206.01 136.42,-206.89 140.20,-210.68 144.36,-213.02"/>
    </edge>

    <edge id="-gneE18" from="gneJ10" to="gneJ3" priority="-1" shape="177.45,-50.19 164.54,-25.36 160.48,-20.82 154.72,-15.97 148.47,-11.53 138.32,-5.51 127.40,-1.30 118.28,-0.39 108.76,0.63 99.13,1.64 21.09,1.70">
        <lane id="-gneE18_0" index="0" speed="13.89" length="159.61" width="4.30" shape="173.14,-37.25 166.32,-24.13 161.98,-19.27 156.04,-14.27 149.64,-9.73 139.26,-3.57 127.90,0.81 118.50,1.75 108.99,2.77 99.24,3.79 29.60,3.84">
            <param key="LeftLineWidth" value="0.155"/>
            <param key="RightLineWidth" value="0.17"/>
        </lane>
    </edge>
    <edge id="-gneE26" from="gneJ17" to="gneJ8" priority="-1">
        <lane id="-gneE26_0" index="0" speed="13.89" length="23.10" width="4.00" shape="141.40,-240.84 138.44,-217.93">
            <param key="LeftLineWidth" value="0.155"/>
            <param key="RightLineWidth" value="0.14"/>
        </lane>
    </edge>
    <edge id="-gneE30" from="gneJ21" to="gneJ20" priority="-1">
        <lane id="-gneE30_0" index="0" speed="13.89" length="7.17" width="5.14" shape="17.55,114.49 17.96,107.33">
            <param key="LeftLineWidth" value="0.385"/>
            <param key="RightLineWidth" value="0.325"/>
        </lane>
    </edge>
    <edge id="-gneE40" from="gneJ20" to="gneJ23" priority="-1" shape="20.98,99.70 59.44,97.25 66.11,96.10 72.46,92.90 76.24,88.40 78.89,82.28 80.57,74.90 83.31,66.19 87.62,58.98 94.15,55.61 100.50,54.45 108.43,54.04 210.61,57.69">
        <lane id="-gneE40_0" index="0" speed="13.89" length="196.24" width="4.36" shape="29.22,96.99 59.18,95.08 65.42,94.01 71.08,91.15 74.37,87.24 76.81,81.60 78.46,74.33 81.31,65.29 86.07,57.33 93.44,53.52 100.25,52.28 108.41,51.86 201.05,55.17">
            <param key="LeftLineWidth" value="0.155"/>
            <param key="RightLineWidth" value="0.163"/>
        </lane>
    </edge>
    <edge id="-gneE41" from="gneJ7" to="gneJ1" priority="-1" shape="-83.56,-125.01 -99.16,-121.51 -185.64,-104.07 -187.83,-98.70 -188.80,1.75">
        <lane id="-gneE41_0" index="0" speed="13.89" length="190.44" width="3.86" shape="-91.79,-121.18 -98.76,-119.62 -184.24,-102.38 -185.90,-98.31 -186.79,-6.62">
            <param key="LeftLineWidth" value="0.155"/>
            <param key="RightLineWidth" value="0.185"/>
        </lane>
    </edge>
    <edge id="-gneE42" from="gneJ3" to="gneJ20" priority="-1" shape="21.09,1.70 19.88,86.82 20.98,99.70">
        <lane id="-gneE42_0" index="0" speed="13.89" length="81.18" width="4.58" shape="23.26,10.20 22.17,86.74 22.56,91.36">
            <param key="LeftLineWidth" value="0.155"/>
            <param key="RightLineWidth" value="0.173"/>
        </lane>
    </edge>
    <edge id="-gneE43" from="gneJ10" to="gneJ23" priority="-1" shape="177.45,-50.19 185.21,-28.13 210.61,57.69">
        <lane id="-gneE43_0" index="0" speed="13.89" length="89.44" width="4.00" shape="183.85,-38.01 187.11,-28.75 209.71,47.60">
            <param key="LeftLineWidth" value="0.155"/>
            <param key="RightLineWidth" value="0.165"/>
        </lane>
    </edge>
    <edge id="-gneE44" from="gneJ8" to="gneJ10" priority="-1" shape="135.12,-207.81 132.56,-177.95 137.21,-155.79 149.25,-130.24 161.60,-104.43 168.02,-84.08 173.84,-59.24 177.45,-50.19">
        <lane id="-gneE44_0" index="0" speed="13.89" length="148.26" width="4.05" shape="136.27,-197.47 134.60,-178.07 139.14,-156.44 151.08,-131.11 163.49,-105.18 169.97,-84.62 175.78,-59.85 176.87,-57.12">
            <param key="LeftLineWidth" value="0.155"/>
            <param key="RightLineWidth" value="0.14"/>
        </lane>
    </edge>
    <edge id="-gneE45" from="gneJ1" to="gneJ21" priority="-1" shape="-188.80,1.75 -193.10,68.06 -191.16,74.66 -188.49,79.91 -183.66,86.32 -178.27,92.99 -169.79,99.05 -159.56,103.26 -148.61,106.97 -135.35,108.88 -121.34,107.80 -107.33,106.70 -93.36,105.58 -82.94,104.80 -72.51,105.36 -62.15,107.29 -52.12,110.90 -42.63,116.86 -31.90,120.20 -17.79,122.22 -3.04,122.99 8.74,123.51 19.60,123.43">
        <lane id="-gneE45_0" index="0" speed="13.89" length="280.21" width="4.07" shape="-187.30,10.01 -191.05,67.83 -189.26,73.91 -186.76,78.83 -182.06,85.07 -176.86,91.50 -168.80,97.26 -158.85,101.36 -148.13,104.98 -135.28,106.84 -121.50,105.77 -107.49,104.67 -93.52,103.55 -82.96,102.76 -72.27,103.34 -61.62,105.32 -51.22,109.06 -41.77,115.00 -31.45,118.21 -17.59,120.19 -2.94,120.96 8.78,121.48 10.70,121.46">
            <param key="LeftLineWidth" value="0.155"/>
            <param key="RightLineWidth" value="0.193"/>
        </lane>
    </edge>
    <edge id="-gneE46" from="gneJ23" to="gneJ21" priority="-1" shape="210.61,57.69 212.93,72.23 217.09,96.57 215.22,101.41 212.20,105.78 208.03,109.14 203.36,111.95 198.54,114.42 193.24,116.57 186.91,117.92 179.88,117.91 172.85,117.03 162.31,112.91 151.49,108.94 140.68,104.91 128.85,102.58 117.09,99.95 106.00,98.41 97.82,99.30 89.38,101.58 79.75,104.95 70.28,109.37 60.83,113.75 51.37,118.13 38.86,121.60 19.60,123.43">
        <lane id="-gneE46_0" index="0" speed="13.89" length="239.36" width="4.06" shape="213.83,64.96 214.93,71.90 219.19,96.78 217.03,102.37 213.70,107.18 209.20,110.81 204.35,113.73 199.39,116.27 193.84,118.52 187.12,119.95 179.75,119.94 172.35,119.01 161.59,114.81 150.79,110.84 140.13,106.87 128.43,104.57 116.73,101.95 105.97,100.46 98.20,101.30 89.98,103.52 80.52,106.83 71.14,111.21 61.68,115.59 52.07,120.04 39.23,123.60 28.98,124.58">
            <param key="LeftLineWidth" value="0.165"/>
            <param key="RightLineWidth" value="0.145"/>
        </lane>
    </edge>
    <edge id="gneE0" from="gneJ1" to="gneJ2" priority="-1">
        <lane id="gneE0_0" index="0" speed="13.89" length="86.98" width="4.35" shape="-180.89,-0.42 -93.91,-0.42">
            <param key="LeftLineWidth" value="0.155"/>
            <param key="RightLineWidth" value="0.165"/>
        </lane>
    </edge>
    <edge id="gneE1" from="gneJ2" to="gneJ1" priority="-1">
        <lane id="gneE1_0" index="0" speed="13.89" length="86.98" width="4.40" shape="-93.91,3.95 -180.89,3.95">
            <param key="LeftLineWidth" value="0.155"/>
            <param key="RightLineWidth" value="0.21"/>
        </lane>
    </edge>
    <edge id="gneE14" from="gneJ7" to="gneJ8" priority="-1" shape="-83.56,-125.01 60.57,-179.46 93.35,-191.82 135.12,-207.81">
        <lane id="gneE14_0" index="0" speed="13.89" length="216.97" width="4.10" shape="-78.13,-129.25 59.84,-181.38 92.62,-193.74 124.79,-206.05">
            <param key="LeftLineWidth" value="0.148"/>
            <param key="RightLineWidth" value="0.16"/>
        </lane>
    </edge>
    <edge id="gneE15" from="gneJ8" to="gneJ9" priority="-1">
        <lane id="gneE15_0" index="0" speed="13.89" length="15.97" width="4.10" shape="144.36,-213.02 159.52,-218.02">
            <param key="LeftLineWidth" value="0.148"/>
            <param key="RightLineWidth" value="0.16"/>
        </lane>
    </edge>
    <edge id="gneE16" from="gneJ9" to="gneJ8" priority="-1">
        <lane id="gneE16_0" index="0" speed="13.89" length="15.97" width="3.85" shape="160.76,-214.24 145.60,-209.24">
            <param key="LeftLineWidth" value="0.148"/>
            <param key="RightLineWidth" value="0.164"/>
        </lane>
    </edge>
    <edge id="gneE17" from="gneJ8" to="gneJ7" priority="-1" shape="135.12,-207.81 93.35,-191.82 60.57,-179.46 -83.56,-125.01">
        <lane id="gneE17_0" index="0" speed="13.89" length="216.99" width="3.85" shape="126.21,-202.34 94.03,-190.02 61.25,-177.66 -76.73,-125.53">
            <param key="LeftLineWidth" value="0.148"/>
            <param key="RightLineWidth" value="0.164"/>
        </lane>
    </edge>
    <edge id="gneE18" from="gneJ3" to="gneJ10" priority="-1" shape="21.09,1.70 99.13,1.64 108.76,0.63 118.28,-0.39 127.40,-1.30 138.32,-5.51 148.47,-11.53 154.72,-15.97 160.48,-20.82 164.54,-25.36 177.45,-50.19">
        <lane id="gneE18_0" index="0" speed="13.89" length="154.74" width="4.60" shape="29.60,-0.61 99.01,-0.66 108.52,-1.66 118.04,-2.68 126.86,-3.56 137.31,-7.59 147.22,-13.46 153.31,-17.79 158.87,-22.47 162.63,-26.68 169.19,-39.30">
            <param key="LeftLineWidth" value="0.155"/>
            <param key="RightLineWidth" value="0.165"/>
        </lane>
    </edge>
    <edge id="gneE2" from="gneJ2" to="gneJ3" priority="-1">
        <lane id="gneE2_0" index="0" speed="13.89" length="90.67" width="4.50" shape="-78.28,-0.50 12.39,-0.55">
            <param key="LeftLineWidth" value="0.155"/>
            <param key="RightLineWidth" value="0.155"/>
        </lane>
    </edge>
    <edge id="gneE26" from="gneJ8" to="gneJ17" priority="-1">
        <lane id="gneE26_0" index="0" speed="13.89" length="23.10" width="4.00" shape="134.48,-218.44 137.44,-241.36">
            <param key="LeftLineWidth" value="0.155"/>
            <param key="RightLineWidth" value="0.164"/>
        </lane>
    </edge>
    <edge id="gneE3" from="gneJ3" to="gneJ2" priority="-1">
        <lane id="gneE3_0" index="0" speed="13.89" length="90.67" width="4.40" shape="12.39,3.90 -78.28,3.95">
            <param key="LeftLineWidth" value="0.155"/>
            <param key="RightLineWidth" value="0.165"/>
        </lane>
    </edge>
    <edge id="gneE30" from="gneJ20" to="gneJ21" priority="-1">
        <lane id="gneE30_0" index="0" speed="13.89" length="7.17" width="4.55" shape="22.80,107.61 22.38,114.77">
            <param key="LeftLineWidth" value="0.385"/>
            <param key="RightLineWidth" value="0.3"/>
        </lane>
    </edge>
    <edge id="gneE40" from="gneJ23" to="gneJ20" priority="-1" shape="210.61,57.69 108.43,54.04 100.50,54.45 94.15,55.61 87.62,58.98 83.31,66.19 80.57,74.90 78.89,82.28 76.24,88.40 72.46,92.90 66.11,96.10 59.44,97.25 20.98,99.70">
        <lane id="gneE40_0" index="0" speed="13.89" length="195.77" width="4.40" shape="200.89,59.54 108.45,56.24 100.76,56.64 94.87,57.72 89.19,60.65 85.33,67.10 82.70,75.48 80.99,82.97 78.13,89.57 73.85,94.66 66.81,98.21 59.70,99.44 29.50,101.36">
            <param key="LeftLineWidth" value="0.155"/>
            <param key="RightLineWidth" value="0.163"/>
        </lane>
    </edge>
    <edge id="gneE41" from="gneJ1" to="gneJ7" priority="-1" shape="-188.80,1.75 -187.83,-98.70 -185.64,-104.07 -99.16,-121.51 -83.56,-125.01">
        <lane id="gneE41_0" index="0" speed="13.89" length="196.03" width="3.93" shape="-190.68,-6.66 -189.79,-99.09 -187.06,-105.79 -99.57,-123.43 -92.64,-124.99">
            <param key="LeftLineWidth" value="0.155"/>
            <param key="RightLineWidth" value="0.165"/>
        </lane>
    </edge>
    <edge id="gneE42" from="gneJ20" to="gneJ3" priority="-1" shape="20.98,99.70 19.88,86.82 21.09,1.70">
        <lane id="gneE42_0" index="0" speed="13.89" length="81.64" width="4.64" shape="17.97,91.75 17.56,86.90 18.65,10.13">
            <param key="LeftLineWidth" value="0.155"/>
            <param key="RightLineWidth" value="0.165"/>
        </lane>
    </edge>
    <edge id="gneE43" from="gneJ23" to="gneJ10" priority="-1" shape="210.61,57.69 185.21,-28.13 177.45,-50.19">
        <lane id="gneE43_0" index="0" speed="13.89" length="89.24" width="3.97" shape="205.89,48.73 183.32,-27.52 180.10,-36.69">
            <param key="LeftLineWidth" value="0.155"/>
            <param key="RightLineWidth" value="0.164"/>
        </lane>
    </edge>
    <edge id="gneE44" from="gneJ10" to="gneJ8" priority="-1" shape="177.45,-50.19 173.84,-59.24 168.02,-84.08 161.60,-104.43 149.25,-130.24 137.21,-155.79 132.56,-177.95 135.12,-207.81">
        <lane id="gneE44_0" index="0" speed="13.89" length="150.14" width="3.97" shape="173.14,-55.63 171.94,-58.64 166.10,-83.55 159.75,-103.70 147.46,-129.39 135.32,-155.15 130.56,-177.83 132.27,-197.82">
            <param key="LeftLineWidth" value="0.155"/>
            <param key="RightLineWidth" value="0.164"/>
        </lane>
    </edge>
    <edge id="gneE45" from="gneJ21" to="gneJ1" priority="-1" shape="19.60,123.43 8.74,123.51 -3.04,122.99 -17.79,122.22 -31.90,120.20 -42.63,116.86 -52.12,110.90 -62.15,107.29 -72.51,105.36 -82.94,104.80 -93.36,105.58 -107.33,106.70 -121.34,107.80 -135.35,108.88 -148.61,106.97 -159.56,103.26 -169.79,99.05 -178.27,92.99 -183.66,86.32 -188.49,79.91 -191.16,74.66 -193.10,68.06 -188.80,1.75">
        <lane id="gneE45_0" index="0" speed="13.89" length="286.90" width="4.03" shape="10.73,125.51 8.70,125.53 -3.14,125.00 -17.99,124.23 -32.35,122.17 -43.48,118.71 -53.01,112.72 -62.68,109.24 -72.75,107.37 -82.92,106.82 -93.20,107.59 -107.17,108.71 -121.18,109.81 -135.42,110.91 -149.08,108.94 -160.27,105.15 -170.77,100.83 -179.67,94.47 -185.25,87.56 -190.21,80.98 -193.04,75.41 -195.14,68.29 -191.34,9.75">
            <param key="LeftLineWidth" value="0.155"/>
            <param key="RightLineWidth" value="0.165"/>
        </lane>
    </edge>
    <edge id="gneE46" from="gneJ21" to="gneJ23" priority="-1" shape="19.60,123.43 38.86,121.60 51.37,118.13 60.83,113.75 70.28,109.37 79.75,104.95 89.38,101.58 97.82,99.30 106.00,98.41 117.09,99.95 128.85,102.58 140.68,104.91 151.49,108.94 162.31,112.91 172.85,117.03 179.88,117.91 186.91,117.92 193.24,116.57 198.54,114.42 203.36,111.95 208.03,109.14 212.20,105.78 215.22,101.41 217.09,96.57 212.93,72.23 210.61,57.69">
        <lane id="gneE46_0" index="0" speed="13.89" length="232.65" width="4.06" shape="28.60,120.54 38.49,119.60 50.67,116.22 59.98,111.91 69.42,107.53 78.98,103.07 88.78,99.64 97.44,97.30 106.03,96.36 117.45,97.95 129.27,100.59 141.23,102.95 152.19,107.04 163.03,111.01 173.35,115.05 180.01,115.88 186.70,115.89 192.64,114.62 197.69,112.57 202.37,110.17 206.86,107.47 210.70,104.38 213.41,100.45 214.99,96.36 210.93,72.56 209.82,65.60">
            <param key="LeftLineWidth" value="0.165"/>
            <param key="RightLineWidth" value="0.145"/>
        </lane>
    </edge>
    <edge id="gneE8" from="gneJ7" to="gneJ2" priority="-1">
        <lane id="gneE8_0" index="0" speed="13.89" length="109.29" width="3.83" shape="-81.83,-116.06 -84.11,-6.79">
            <param key="LeftLineWidth" value="0.155"/>
            <param key="RightLineWidth" value="0.165"/>
        </lane>
    </edge>
    <edge id="gneE9" from="gneJ2" to="gneJ7" priority="-1">
        <lane id="gneE9_0" index="0" speed="13.89" length="109.29" width="3.80" shape="-87.92,-6.87 -85.65,-116.14">
            <param key="LeftLineWidth" value="0.155"/>
            <param key="RightLineWidth" value="0.165"/>
        </lane>
    </edge>
