<?xml version="1.0" encoding="UTF-8"?>

<!-- generated on 02/27/20 15:18:17 by Eclipse SUMO netedit Version 1.2.0
<configuration xmlns:xsi="http://www.w3.org/2001/XMLSchema-instance" xsi:noNamespaceSchemaLocation="http://sumo.dlr.de/xsd/netconvertConfiguration.xsd">

    <input>
        <sumo-net-file value="F:\Work\sumo%20line\highway10\highway11.net.xml"/>
    </input>

    <output>
        <output-file value="F:\Work\sumo%20line\Freeway10km.net.xml"/>
    </output>

    <processing>
        <geometry.max-grade.fix value="false"/>
        <offset.disable-normalization value="true"/>
        <lefthand value="false"/>
    </processing>

    <junctions>
        <no-turnarounds value="true"/>
        <junctions.corner-detail value="5"/>
        <junctions.limit-turn-speed value="5.5"/>
        <rectangular-lane-cut value="false"/>
    </junctions>

    <pedestrian>
        <walkingareas value="false"/>
    </pedestrian>

</configuration>
-->

<net version="1.1" junctionCornerDetail="5" limitTurnSpeed="5.50" xmlns:xsi="http://www.w3.org/2001/XMLSchema-instance" xsi:noNamespaceSchemaLocation="http://sumo.dlr.de/xsd/net_file.xsd">

    <location netOffset="0.00,0.00" convBoundary="-1246.71,-923.32,1025.60,946.35" origBoundary="-10000000000.00,-10000000000.00,10000000000.00,10000000000.00" projParameter="!"/>

    <edge id=":gneJ11_0" function="internal">
        <lane id=":gneJ11_0_0" index="0" speed="13.89" length="3.63" width="3.50" shape="367.83,534.33 366.70,534.05 365.96,533.76 365.23,533.42 364.15,532.96"/>
        <lane id=":gneJ11_0_1" index="1" speed="13.89" length="3.63" width="3.75" shape="368.58,530.78 367.63,530.54 367.01,530.29 366.40,529.98 365.49,529.59"/>
    </edge>
    <edge id=":gneJ3_0" function="internal">
        <lane id=":gneJ3_0_0" index="0" speed="13.89" length="1.13" width="3.75" shape="922.36,-4.44 922.35,-4.15"/>
        <lane id=":gneJ3_0_1" index="1" speed="13.89" length="1.13" width="3.75" shape="918.61,-4.50 918.60,-4.20"/>
        <lane id=":gneJ3_0_2" index="2" speed="13.89" length="1.13" width="3.75" shape="914.86,-4.56 914.85,-4.26"/>
        <lane id=":gneJ3_0_3" index="3" speed="13.89" length="1.13" width="3.75" shape="907.48,-4.69 911.10,-4.32"/>
    </edge>
    <edge id=":gneJ4_0" function="internal">
        <lane id=":gneJ4_0_0" index="0" speed="13.89" length="14.58" width="3.75" shape="274.10,497.26 270.78,497.75 269.00,501.08 267.17,504.55 263.70,505.47"/>
        <lane id=":gneJ4_0_1" index="1" speed="13.89" length="14.58" width="3.75" shape="274.97,493.71 271.68,494.19 269.90,497.49 268.08,500.93 264.65,501.84"/>
    </edge>
    <edge id=":gneJ4_2" function="internal">
        <lane id=":gneJ4_2_0" index="0" speed="13.89" length="8.06" width="3.75" shape="271.59,507.44 263.70,505.47"/>
        <lane id=":gneJ4_2_1" index="1" speed="13.89" length="8.06" width="3.75" shape="272.49,503.80 264.65,501.84"/>
        <lane id=":gneJ4_2_2" index="2" speed="13.89" length="8.06" width="3.75" shape="273.39,500.16 265.59,498.21"/>
        <lane id=":gneJ4_2_3" index="3" speed="13.89" length="8.06" width="3.75" shape="274.28,496.52 266.54,494.58"/>
    </edge>
    <edge id=":gneJ5_0" function="internal">
        <lane id=":gneJ5_0_0" index="0" speed="13.89" length="16.37" width="3.75" shape="-697.25,548.77 -707.39,535.91"/>
    </edge>
    <edge id=":gneJ5_1" function="internal">
        <lane id=":gneJ5_1_0" index="0" speed="13.89" length="6.39" width="3.75" shape="-697.25,548.77 -703.59,549.59"/>
    </edge>
    <edge id=":gneJ5_2" function="internal">
        <lane id=":gneJ5_2_0" index="0" speed="13.89" length="13.27" width="3.75" shape="-697.77,545.05 -707.39,535.91"/>
    </edge>
    <edge id=":gneJ5_3" function="internal">
        <lane id=":gneJ5_3_0" index="0" speed="13.89" length="7.39" width="3.75" shape="-697.77,545.05 -704.60,545.93"/>
        <lane id=":gneJ5_3_1" index="1" speed="13.89" length="7.39" width="3.75" shape="-698.29,541.34 -705.62,542.27"/>
        <lane id=":gneJ5_3_2" index="2" speed="13.89" length="7.39" width="3.75" shape="-698.80,537.62 -706.64,538.61"/>
    </edge>
    <edge id=":gneJ6_0" function="internal">
        <lane id=":gneJ6_0_0" index="0" speed="13.89" length="9.48" width="3.75" shape="-327.35,-43.90 -324.76,-42.35 -323.92,-39.63 -323.08,-36.91 -320.48,-35.37"/>
        <lane id=":gneJ6_0_1" index="1" speed="13.89" length="9.48" width="3.75" shape="-327.88,-40.19 -325.49,-39.26 -324.18,-37.77 -322.87,-36.29 -320.48,-35.37"/>
        <lane id=":gneJ6_0_2" index="2" speed="13.89" length="9.48" width="3.75" shape="-328.40,-36.48 -326.02,-35.55 -324.70,-34.06 -323.38,-32.58 -321.00,-31.66"/>
        <lane id=":gneJ6_0_3" index="3" speed="13.89" length="9.48" width="3.75" shape="-328.93,-32.76 -321.00,-31.66"/>
    </edge>
    <edge id=":gneJ7_0" function="internal">
        <lane id=":gneJ7_0_0" index="0" speed="13.89" length="9.47" width="3.75" shape="-179.82,-17.73 -176.93,-18.56 -175.45,-20.97 -173.97,-23.41 -171.08,-24.27"/>
        <lane id=":gneJ7_0_1" index="1" speed="13.89" length="9.47" width="3.75" shape="-179.82,-17.73 -177.29,-18.01 -175.66,-19.12 -174.02,-20.23 -171.49,-20.54"/>
        <lane id=":gneJ7_0_2" index="2" speed="13.89" length="9.47" width="3.75" shape="-180.28,-14.01 -177.73,-14.29 -176.09,-15.39 -174.44,-16.50 -171.89,-16.82"/>
        <lane id=":gneJ7_0_3" index="3" speed="13.89" length="9.47" width="3.75" shape="-180.28,-14.01 -172.30,-13.09"/>
    </edge>
    <edge id=":gneJ8_0" function="internal">
        <lane id=":gneJ8_0_0" index="0" speed="13.89" length="0.56" width="3.75" shape="840.36,-850.24 841.16,-849.94"/>
        <lane id=":gneJ8_0_1" index="1" speed="13.89" length="0.56" width="3.75" shape="839.13,-846.70 839.74,-846.47"/>
        <lane id=":gneJ8_0_2" index="2" speed="13.89" length="0.56" width="3.75" shape="837.89,-843.16 838.33,-842.99"/>
        <lane id=":gneJ8_0_3" index="3" speed="13.89" length="0.56" width="3.75" shape="836.66,-839.62 836.92,-839.52"/>
    </edge>

    <edge id="gneE10" from="gneJ10" to="gneJ11" priority="-1" shape="846.97,931.80 835.09,899.70 822.27,869.34 808.59,840.71 794.09,813.75 778.85,788.41 762.91,764.63 746.35,742.37 729.20,721.56 711.54,702.15 693.41,684.09 674.89,667.32 656.02,651.78 636.87,637.42 617.50,624.19 597.95,612.04 578.29,600.89 558.59,590.71 538.89,581.43 519.26,573.00 499.74,565.37 480.41,558.47 461.32,552.25 442.52,546.66 424.08,541.65 407.07,537.50 399.02,535.55 383.96,532.13 368.97,528.95">
        <lane id="gneE10_0" index="0" speed="13.89" length="655.15" width="3.50" shape="841.81,933.71 829.98,901.72 817.25,871.60 803.68,843.20 789.31,816.47 774.21,791.36 758.42,767.81 742.01,745.76 725.04,725.16 707.56,705.95 689.62,688.08 671.29,671.48 652.62,656.10 633.67,641.90 614.49,628.80 595.14,616.77 575.68,605.73 556.15,595.64 536.63,586.45 517.17,578.09 497.82,570.52 478.64,563.67 459.68,557.50 441.02,551.95 422.71,546.97 405.77,542.85 397.76,540.91 382.78,537.50 367.83,534.33"/>
        <lane id="gneE10_1" index="1" speed="13.89" length="655.15" width="3.75" shape="845.21,932.45 833.35,900.39 820.56,870.11 806.91,841.56 792.46,814.68 777.27,789.42 761.38,765.72 744.87,743.53 727.78,722.79 710.18,703.45 692.12,685.45 673.66,668.73 654.86,653.25 635.78,638.95 616.47,625.77 596.99,613.65 577.40,602.54 557.76,592.39 538.12,583.14 518.54,574.74 499.09,567.12 479.81,560.24 460.76,554.04 442.01,548.47 423.61,543.46 406.63,539.32 398.59,537.38 383.56,533.96 368.58,530.78"/>
    </edge>
    <edge id="gneE11" from="gneJ11" to="gneJ4" priority="-1">
        <lane id="gneE11_0" index="0" speed="13.89" length="97.12" width="3.50" shape="364.15,532.96 274.10,497.26"/>
        <lane id="gneE11_1" index="1" speed="13.89" length="97.12" width="3.75" shape="365.49,529.59 274.97,493.71"/>
    </edge>
    <edge id="gneE2" from="gneJ3" to="gneJ4" priority="-1" shape="905.73,-4.56 905.55,7.24 905.36,19.78 905.15,33.15 904.90,47.45 904.60,62.78 904.23,79.24 903.77,96.92 903.21,115.93 902.54,136.36 901.75,158.15 900.34,180.22 897.86,201.67 894.32,222.64 889.78,243.12 884.26,263.06 877.80,282.46 870.43,301.28 862.21,319.50 853.15,337.09 843.29,354.03 832.68,370.30 821.35,385.86 809.33,400.69 796.67,414.77 783.39,428.07 769.54,440.57 755.16,452.23 740.27,463.04 724.92,472.97 709.14,482.00 692.97,490.09 676.45,497.23 659.61,503.40 642.49,508.56 625.12,512.69 607.55,515.78 589.69,517.80 576.51,518.68 562.87,519.36 548.96,519.83 534.83,520.09 520.49,520.15 505.97,520.00 491.30,519.64 476.51,519.08 461.63,518.32 446.67,517.35 431.68,516.18 416.66,514.81 409.69,514.08 401.66,513.24 386.70,511.47 371.80,509.51 356.99,507.34 342.30,504.99 327.75,502.44 313.37,499.69 299.19,496.76 285.24,493.64 276.78,491.59 271.54,490.33">
        <lane id="gneE2_0" index="0" speed="13.89" length="1018.55" width="3.50" shape="925.98,-4.09 925.80,7.55 925.61,20.09 925.40,33.49 925.15,47.83 924.85,63.21 924.47,79.73 924.01,97.48 923.45,116.56 922.78,137.06 921.98,159.16 920.52,182.03 917.92,204.52 914.20,226.52 909.44,248.02 903.64,268.96 896.85,289.36 889.10,309.14 880.45,328.31 870.91,346.83 860.53,364.66 849.36,381.80 837.41,398.20 824.73,413.84 811.37,428.70 797.35,442.75 782.71,455.96 767.49,468.30 751.73,479.75 735.46,490.27 718.71,499.86 701.52,508.45 683.96,516.05 666.02,522.62 647.76,528.12 629.22,532.53 610.44,535.83 591.50,537.97 577.69,538.90 563.72,539.59 549.49,540.07 535.06,540.34 520.43,540.40 505.62,540.25 490.67,539.88 475.61,539.31 460.46,538.54 445.23,537.55 429.97,536.36 414.73,534.97 407.58,534.22 399.42,533.37 384.19,531.56 369.01,529.57 353.92,527.36 338.95,524.96 324.10,522.36 309.42,519.55 294.93,516.56 280.65,513.36 272.02,511.27 270.73,510.96"/>
        <lane id="gneE2_1" index="1" speed="13.89" length="1018.55" width="3.75" shape="922.35,-4.15 922.17,7.49 921.98,20.04 921.77,33.43 921.52,47.76 921.22,63.13 920.85,79.64 920.39,97.38 919.83,116.45 919.16,136.93 918.36,158.98 916.90,181.71 914.33,204.01 910.64,225.82 905.92,247.14 900.17,267.91 893.44,288.12 885.76,307.73 877.19,326.73 867.73,345.08 857.45,362.76 846.37,379.74 834.54,395.99 821.98,411.49 808.74,426.21 794.85,440.12 780.35,453.21 765.29,465.42 749.68,476.76 733.57,487.17 716.99,496.66 699.99,505.17 682.61,512.68 664.87,519.18 646.82,524.62 628.49,528.98 609.93,532.24 591.18,534.36 577.48,535.28 563.56,535.97 549.39,536.45 535.02,536.71 520.44,536.78 505.68,536.62 490.78,536.26 475.77,535.69 460.67,534.92 445.49,533.93 430.28,532.75 415.08,531.36 407.96,530.61 399.82,529.76 384.64,527.97 369.51,525.98 354.47,523.77 339.55,521.39 324.75,518.79 310.13,516.00 295.69,513.01 281.47,509.83 272.88,507.75 271.59,507.44"/>
        <lane id="gneE2_2" index="2" speed="13.89" length="1018.55" width="3.75" shape="918.60,-4.20 918.42,7.44 918.23,19.98 918.02,33.36 917.77,47.69 917.47,63.05 917.10,79.55 916.64,97.28 916.08,116.33 915.41,136.80 914.61,158.79 913.17,181.37 910.61,203.48 906.96,225.11 902.28,246.23 896.58,266.81 889.91,286.84 882.30,306.28 873.81,325.10 864.44,343.28 854.25,360.79 843.28,377.61 831.56,393.71 819.12,409.05 806.02,423.63 792.26,437.40 777.91,450.36 763.00,462.45 747.55,473.66 731.62,483.97 715.22,493.35 698.41,501.77 681.22,509.19 663.69,515.62 645.84,521.00 627.73,525.30 609.39,528.53 590.84,530.63 577.26,531.53 563.41,532.22 549.30,532.70 534.98,532.96 520.45,533.03 505.75,532.87 490.90,532.51 475.94,531.94 460.89,531.17 445.75,530.19 430.59,529.01 415.44,527.63 408.35,526.89 400.23,526.04 385.10,524.25 370.03,522.26 355.04,520.07 340.17,517.69 325.43,515.10 310.86,512.32 296.48,509.35 282.32,506.18 273.76,504.10 272.49,503.80"/>
        <lane id="gneE2_3" index="3" speed="13.89" length="1018.55" width="3.75" shape="914.85,-4.26 914.67,7.38 914.48,19.92 914.27,33.30 914.02,47.62 913.72,62.97 913.35,79.46 912.89,97.17 912.33,116.21 911.66,136.68 910.86,158.61 909.43,181.04 906.90,202.95 903.28,224.39 898.64,245.33 892.99,265.72 886.38,285.57 878.84,304.82 870.43,323.47 861.15,341.48 851.06,358.82 840.19,375.48 828.59,391.42 816.27,406.62 803.30,421.05 789.68,434.69 775.47,447.51 760.72,459.47 745.43,470.57 729.67,480.77 713.45,490.05 696.82,498.36 679.83,505.71 662.50,512.06 644.86,517.37 626.97,521.63 608.85,524.82 590.51,526.89 577.04,527.79 563.25,528.48 549.20,528.95 534.93,529.21 520.46,529.28 505.81,529.12 491.02,528.76 476.10,528.20 461.10,527.43 446.02,526.45 430.91,525.27 415.79,523.89 408.74,523.16 400.65,522.31 385.57,520.52 370.54,518.55 355.61,516.36 340.79,513.99 326.11,511.42 311.59,508.64 297.27,505.68 283.17,502.53 274.64,500.46 273.39,500.16"/>
        <lane id="gneE2_4" index="4" speed="13.89" length="1018.55" width="3.75" shape="911.10,-4.32 910.92,7.32 910.73,19.86 910.52,33.24 910.27,47.55 909.97,62.89 909.60,79.37 909.14,97.07 908.58,116.10 907.91,136.55 907.12,158.42 905.70,180.70 903.18,202.43 899.60,223.67 895.00,244.42 889.40,264.63 882.86,284.29 875.39,303.37 867.05,321.84 857.87,339.67 847.87,356.85 837.11,373.35 825.61,389.14 813.42,404.18 800.57,418.47 787.09,431.97 773.04,444.66 758.43,456.50 743.31,467.47 727.72,477.56 711.68,486.74 695.24,494.96 678.44,502.22 661.31,508.50 643.89,513.75 626.21,517.96 608.32,521.10 590.17,523.15 576.82,524.05 563.09,524.73 549.10,525.20 534.89,525.46 520.47,525.53 505.88,525.37 491.13,525.01 476.27,524.45 461.32,523.69 446.29,522.71 431.23,521.54 416.15,520.16 409.13,519.43 401.06,518.58 386.03,516.80 371.06,514.83 356.18,512.65 341.41,510.29 326.78,507.73 312.32,504.96 298.06,502.01 284.02,498.88 275.52,496.81 274.28,496.52"/>
        <lane id="gneE2_5" index="5" speed="13.89" length="1018.55" width="3.50" shape="907.48,-4.37 907.30,7.27 907.11,19.81 906.90,33.18 906.65,47.48 906.35,62.82 905.98,79.28 905.52,96.97 904.96,115.98 904.29,136.42 903.50,158.24 902.08,180.38 899.59,201.92 896.04,222.98 891.48,243.54 885.93,263.57 879.45,283.06 872.04,301.96 863.79,320.26 854.69,337.93 844.78,354.95 834.12,371.29 822.74,386.93 810.66,401.83 797.94,415.97 784.60,429.34 770.68,441.90 756.23,453.62 741.26,464.48 725.83,474.47 709.97,483.54 693.71,491.68 677.10,498.86 660.16,505.06 642.95,510.25 625.47,514.40 607.80,517.51 589.85,519.54 576.61,520.43 562.94,521.11 549.01,521.58 534.85,521.84 520.48,521.90 505.94,521.75 491.25,521.39 476.43,520.83 461.53,520.07 446.55,519.10 431.53,517.92 416.49,516.55 409.51,515.82 401.47,514.98 386.48,513.21 371.56,511.24 356.72,509.07 342.01,506.72 327.43,504.16 313.03,501.41 298.82,498.47 284.84,495.34 276.37,493.29 275.15,493.00"/>
    </edge>
    <edge id="gneE3" from="gneJ4" to="gneJ5" priority="-1" shape="271.54,490.33 258.12,486.84 245.01,483.16 232.23,479.30 219.81,475.26 207.62,470.99 173.17,459.05 139.39,448.47 106.43,439.23 74.29,431.29 42.98,424.58 12.49,419.04 -17.18,414.59 -46.02,411.19 -74.02,408.77 -101.20,407.26 -127.55,406.60 -153.06,406.72 -177.74,407.57 -201.59,409.08 -224.60,411.19 -246.77,413.83 -268.10,416.93 -288.59,420.44 -308.24,424.28 -327.05,428.40 -345.01,432.73 -362.13,437.20 -378.40,441.75 -393.81,446.31 -408.38,450.82 -422.08,455.21 -434.95,459.43 -447.58,463.68 -460.51,468.14 -473.73,472.78 -487.28,477.55 -501.17,482.41 -515.43,487.32 -530.09,492.23 -545.16,497.12 -560.68,501.92 -576.66,506.62 -593.13,511.15 -610.11,515.49 -627.63,519.60 -645.70,523.43 -664.36,526.94 -683.62,530.09 -703.50,532.85">
        <lane id="gneE3_0" index="0" speed="13.89" length="990.16" width="3.50" shape="262.79,508.98 252.83,506.39 239.35,502.60 226.17,498.62 213.33,494.45 200.96,490.11 166.83,478.28 133.63,467.89 101.27,458.81 69.74,451.02 39.05,444.45 9.18,439.02 -19.87,434.66 -48.08,431.34 -75.45,428.97 -102.02,427.50 -127.76,426.85 -152.66,426.97 -176.75,427.80 -200.03,429.27 -222.48,431.33 -244.12,433.91 -264.93,436.93 -284.94,440.36 -304.13,444.11 -322.51,448.14 -340.08,452.37 -356.84,456.75 -372.80,461.21 -387.94,465.69 -402.30,470.13 -415.84,474.47 -428.57,478.65 -441.05,482.85 -453.85,487.27 -467.01,491.88 -480.57,496.66 -494.53,501.54 -508.92,506.49 -523.75,511.46 -539.04,516.42 -554.83,521.31 -571.12,526.10 -587.94,530.72 -605.29,535.16 -623.22,539.36 -641.73,543.29 -660.85,546.89 -680.59,550.11 -696.76,552.36"/>
        <lane id="gneE3_1" index="1" speed="13.89" length="990.16" width="3.75" shape="263.70,505.47 253.78,502.89 240.36,499.12 227.25,495.16 214.49,491.01 202.15,486.69 167.96,474.84 134.66,464.41 102.19,455.31 70.55,447.49 39.75,440.89 9.77,435.44 -19.39,431.07 -47.71,427.73 -75.20,425.36 -101.87,423.87 -127.72,423.23 -152.73,423.34 -176.93,424.18 -200.31,425.66 -222.86,427.72 -244.59,430.31 -265.50,433.35 -285.59,436.79 -304.87,440.56 -323.32,444.60 -340.96,448.86 -357.79,453.25 -373.80,457.73 -388.99,462.22 -403.39,466.68 -416.96,471.03 -429.71,475.21 -442.22,479.42 -455.05,483.84 -468.22,488.46 -481.77,493.24 -495.72,498.12 -510.08,503.06 -524.88,508.02 -540.14,512.97 -555.88,517.84 -572.11,522.61 -588.87,527.22 -606.15,531.64 -624.01,535.83 -642.44,539.73 -661.48,543.32 -681.13,546.53 -697.25,548.77"/>
        <lane id="gneE3_2" index="2" speed="13.89" length="990.16" width="3.75" shape="264.65,501.84 254.76,499.27 241.41,495.52 228.38,491.59 215.69,487.46 203.38,483.15 169.14,471.28 135.73,460.81 103.15,451.68 71.40,443.84 40.48,437.21 10.38,431.74 -18.89,427.35 -47.33,424.00 -74.93,421.61 -101.72,420.13 -127.68,419.48 -152.81,419.59 -177.11,420.43 -200.60,421.92 -223.25,424.00 -245.08,426.60 -266.09,429.65 -286.27,433.10 -305.63,436.89 -324.16,440.95 -341.87,445.22 -358.77,449.63 -374.84,454.12 -390.08,458.63 -404.51,463.10 -418.11,467.46 -430.89,471.65 -443.43,475.87 -456.28,480.30 -469.46,484.93 -483.02,489.70 -496.95,494.57 -511.29,499.51 -526.06,504.46 -541.27,509.39 -556.96,514.25 -573.14,519.00 -589.83,523.60 -607.05,528.00 -624.82,532.17 -643.17,536.06 -662.13,539.62 -681.70,542.82 -697.77,545.05"/>
        <lane id="gneE3_3" index="3" speed="13.89" length="990.16" width="3.75" shape="265.59,498.21 255.74,495.65 242.46,491.92 229.50,488.01 216.89,483.91 204.62,479.61 170.31,467.72 136.79,457.22 104.10,448.05 72.24,440.18 41.21,433.53 11.00,428.04 -18.39,423.64 -46.95,420.27 -74.67,417.87 -101.57,416.38 -127.64,415.73 -152.88,415.84 -177.29,416.69 -200.88,418.18 -223.64,420.27 -245.57,422.88 -266.67,425.94 -286.94,429.42 -306.39,433.22 -325.00,437.29 -342.79,441.58 -359.75,446.01 -375.88,450.52 -391.17,455.04 -405.64,459.52 -419.27,463.89 -432.07,468.09 -444.64,472.32 -457.51,476.76 -470.70,481.39 -484.26,486.16 -498.18,491.03 -512.50,495.96 -527.23,500.90 -542.40,505.82 -558.04,510.66 -574.16,515.40 -590.79,519.97 -607.94,524.35 -625.64,528.51 -643.91,532.38 -662.78,535.93 -682.26,539.11 -698.29,541.34"/>
        <lane id="gneE3_4" index="4" speed="13.89" length="990.16" width="3.75" shape="266.54,494.58 256.72,492.03 243.51,488.32 230.62,484.43 218.09,480.35 205.85,476.07 171.49,464.16 137.86,453.62 105.06,444.43 73.08,436.53 41.94,429.85 11.61,424.34 -17.89,419.92 -46.57,416.54 -74.40,414.13 -101.42,412.63 -127.60,411.98 -152.95,412.09 -177.48,412.94 -201.17,414.44 -224.04,416.54 -246.07,419.16 -267.26,422.24 -287.62,425.73 -307.15,429.54 -325.84,433.64 -343.70,437.94 -360.73,442.39 -376.91,446.92 -392.25,451.45 -406.77,455.95 -420.42,460.32 -433.26,464.53 -445.85,468.77 -458.74,473.22 -471.95,477.85 -485.50,482.62 -499.41,487.49 -513.70,492.41 -528.41,497.33 -543.54,502.24 -559.13,507.07 -575.19,511.79 -591.75,516.35 -608.83,520.71 -626.46,524.85 -644.65,528.70 -663.43,532.23 -682.82,535.41 -698.80,537.62"/>
        <lane id="gneE3_5" index="5" speed="13.89" length="990.16" width="3.50" shape="267.45,491.07 257.66,488.53 244.52,484.84 231.71,480.97 219.25,476.92 207.04,472.64 172.62,460.71 138.89,450.15 105.98,440.92 73.90,433.00 42.64,426.30 12.20,420.77 -17.41,416.32 -46.20,412.93 -74.14,410.52 -101.27,409.01 -127.57,408.35 -153.03,408.47 -177.65,409.32 -201.45,410.82 -224.42,412.93 -246.54,415.57 -267.83,418.66 -288.27,422.16 -307.88,425.99 -326.66,430.11 -344.58,434.43 -361.67,438.89 -377.92,443.43 -393.30,447.98 -407.85,452.49 -421.54,456.87 -434.40,461.09 -447.02,465.34 -459.93,469.79 -473.15,474.43 -486.70,479.20 -500.60,484.06 -514.87,488.98 -529.54,493.89 -544.63,498.79 -560.17,503.60 -576.18,508.30 -592.68,512.84 -609.69,517.19 -627.25,521.31 -645.36,525.15 -664.06,528.66 -683.36,531.82 -699.30,534.03"/>
    </edge>
    <edge id="gneE4" from="gneJ5" to="gneJ6" priority="-1" shape="-703.50,532.85 -724.04,535.16 -745.26,536.99 -767.17,538.29 -789.80,539.03 -813.18,539.16 -837.33,538.64 -855.73,537.84 -869.06,536.91 -888.01,535.48 -914.60,532.76 -941.97,529.22 -965.22,525.30 -988.08,520.22 -1010.54,513.98 -1032.51,506.61 -1053.90,498.11 -1074.62,488.50 -1094.57,477.81 -1113.67,466.05 -1131.83,453.24 -1148.97,439.40 -1165.00,424.54 -1179.84,408.69 -1193.41,391.87 -1205.63,374.07 -1216.42,355.32 -1225.71,335.61 -1233.41,314.96 -1239.45,293.36 -1243.74,270.80 -1246.19,247.29 -1246.71,222.82 -1245.20,197.38 -1241.56,170.98 -1235.70,143.61 -1227.51,115.30 -1216.89,86.05 -1203.80,56.01 -1188.43,27.48 -1171.01,2.33 -1151.62,-19.79 -1130.40,-39.08 -1107.48,-55.73 -1082.98,-69.90 -1057.03,-81.73 -1029.78,-91.39 -1001.39,-98.99 -972.03,-104.68 -941.86,-108.60 -911.07,-110.89 -879.84,-111.70 -848.34,-111.18 -816.77,-109.47 -785.29,-106.75 -754.09,-103.15 -723.34,-98.85 -693.23,-93.99 -663.92,-88.74 -635.60,-83.26 -608.43,-77.70 -582.59,-72.22 -558.23,-66.98 -535.53,-62.14 -514.64,-57.86 -495.78,-54.30 -478.56,-51.29 -462.31,-48.47 -446.88,-45.84 -432.23,-43.37 -418.30,-41.05 -405.02,-38.88 -392.35,-36.85 -380.22,-34.94 -368.57,-33.14 -357.36,-31.45 -346.51,-29.85 -335.98,-28.33 -325.71,-26.88">
        <lane id="gneE4_0" index="0" speed="13.89" length="1865.92" width="3.50" shape="-702.60,553.13 -722.04,555.31 -743.79,557.19 -766.24,558.52 -789.41,559.28 -813.34,559.41 -837.99,558.88 -856.87,558.06 -870.53,557.11 -889.80,555.65 -916.93,552.88 -944.95,549.25 -969.10,545.18 -992.99,539.87 -1016.47,533.35 -1039.47,525.63 -1061.91,516.72 -1083.67,506.62 -1104.67,495.37 -1124.83,482.96 -1144.04,469.41 -1162.23,454.72 -1179.29,438.90 -1195.13,421.99 -1209.66,403.98 -1222.78,384.87 -1234.38,364.70 -1244.39,343.48 -1252.68,321.24 -1259.18,297.99 -1263.79,273.75 -1266.42,248.56 -1266.97,222.43 -1265.37,195.39 -1261.52,167.47 -1255.35,138.67 -1246.77,109.02 -1235.71,78.54 -1222.03,47.15 -1205.72,16.88 -1187.00,-10.15 -1166.09,-34.00 -1143.20,-54.81 -1118.53,-72.73 -1092.27,-87.92 -1064.63,-100.52 -1035.79,-110.74 -1005.94,-118.73 -975.26,-124.68 -943.92,-128.75 -912.08,-131.12 -879.94,-131.95 -847.63,-131.42 -815.35,-129.67 -783.26,-126.90 -751.53,-123.24 -720.32,-118.88 -689.83,-113.95 -660.21,-108.65 -631.65,-103.12 -604.30,-97.52 -578.36,-92.02 -553.99,-86.78 -531.39,-81.96 -510.73,-77.73 -492.16,-74.22 -475.09,-71.24 -458.88,-68.43 -443.49,-65.81 -428.88,-63.34 -415.00,-61.03 -401.78,-58.87 -389.17,-56.85 -377.10,-54.95 -365.51,-53.16 -354.37,-51.48 -343.59,-49.89 -333.12,-48.38 -326.85,-47.49"/>
        <lane id="gneE4_1" index="1" speed="13.89" length="1865.92" width="3.75" shape="-703.59,549.59 -722.40,551.70 -744.05,553.57 -766.41,554.90 -789.48,555.65 -813.31,555.79 -837.87,555.26 -856.67,554.44 -870.26,553.49 -889.48,552.04 -916.51,549.28 -944.42,545.67 -968.41,541.62 -992.11,536.35 -1015.41,529.88 -1038.23,522.23 -1060.47,513.39 -1082.05,503.38 -1102.86,492.23 -1122.83,479.93 -1141.85,466.51 -1159.86,451.98 -1176.73,436.33 -1192.39,419.61 -1206.75,401.81 -1219.71,382.93 -1231.17,363.02 -1241.04,342.07 -1249.23,320.11 -1255.65,297.16 -1260.20,273.22 -1262.80,248.33 -1263.35,222.50 -1261.76,195.75 -1257.95,168.10 -1251.83,139.55 -1243.33,110.15 -1232.34,79.89 -1218.76,48.73 -1202.63,18.78 -1184.14,-7.92 -1163.50,-31.46 -1140.91,-51.99 -1116.55,-69.69 -1090.61,-84.69 -1063.27,-97.16 -1034.71,-107.28 -1005.13,-115.20 -974.69,-121.10 -943.55,-125.15 -911.90,-127.50 -879.92,-128.33 -847.75,-127.80 -815.60,-126.06 -783.62,-123.29 -751.99,-119.64 -720.86,-115.29 -690.44,-110.38 -660.88,-105.08 -632.35,-99.57 -605.04,-93.98 -579.12,-88.48 -554.75,-83.24 -532.13,-78.41 -511.43,-74.17 -492.81,-70.66 -475.71,-67.67 -459.49,-64.85 -444.10,-62.23 -429.48,-59.77 -415.59,-57.45 -402.36,-55.29 -389.74,-53.27 -377.66,-51.37 -366.06,-49.57 -354.91,-47.89 -344.11,-46.30 -333.63,-44.79 -327.35,-43.90"/>
        <lane id="gneE4_2" index="2" speed="13.89" length="1865.92" width="3.75" shape="-704.60,545.93 -722.77,547.97 -744.33,549.83 -766.58,551.15 -789.55,551.90 -813.28,552.04 -837.75,551.51 -856.46,550.70 -869.99,549.75 -889.15,548.31 -916.08,545.55 -943.87,541.96 -967.69,537.94 -991.20,532.72 -1014.31,526.29 -1036.94,518.70 -1058.99,509.94 -1080.37,500.02 -1100.99,488.98 -1120.76,476.80 -1139.59,463.52 -1157.40,449.14 -1174.09,433.67 -1189.56,417.14 -1203.74,399.57 -1216.53,380.94 -1227.84,361.29 -1237.59,340.61 -1245.66,318.95 -1252.00,296.30 -1256.49,272.67 -1259.05,248.10 -1259.59,222.57 -1258.02,196.12 -1254.25,168.75 -1248.19,140.47 -1239.76,111.31 -1228.85,81.28 -1215.39,50.38 -1199.42,20.74 -1181.18,-5.60 -1160.82,-28.83 -1138.54,-49.08 -1114.51,-66.54 -1088.89,-81.36 -1061.86,-93.68 -1033.60,-103.70 -1004.28,-111.54 -974.09,-117.40 -943.17,-121.41 -911.71,-123.75 -879.90,-124.58 -847.89,-124.05 -815.87,-122.31 -784.00,-119.56 -752.46,-115.92 -721.42,-111.58 -691.07,-106.68 -661.56,-101.40 -633.09,-95.89 -605.80,-90.30 -579.90,-84.81 -555.53,-79.57 -532.90,-74.74 -512.15,-70.49 -493.48,-66.97 -476.35,-63.97 -460.13,-61.16 -444.73,-58.53 -430.10,-56.07 -416.20,-53.75 -402.96,-51.59 -390.33,-49.57 -378.24,-47.66 -366.63,-45.87 -355.46,-44.18 -344.65,-42.59 -334.16,-41.08 -327.88,-40.19"/>
        <lane id="gneE4_3" index="3" speed="13.89" length="1865.92" width="3.75" shape="-705.62,542.27 -723.14,544.24 -744.60,546.09 -766.75,547.41 -789.63,548.15 -813.25,548.29 -837.63,547.76 -856.25,546.95 -869.72,546.01 -888.82,544.57 -915.65,541.83 -943.31,538.25 -966.97,534.26 -990.29,529.08 -1013.21,522.71 -1035.65,515.18 -1057.51,506.50 -1078.70,496.67 -1099.12,485.72 -1118.70,473.67 -1137.33,460.53 -1154.95,446.30 -1171.44,431.01 -1186.73,414.68 -1200.73,397.33 -1213.36,378.94 -1224.52,359.55 -1234.13,339.16 -1242.09,317.79 -1248.34,295.44 -1252.78,272.13 -1255.30,247.86 -1255.84,222.65 -1254.29,196.49 -1250.55,169.40 -1244.56,141.38 -1236.19,112.47 -1225.37,82.67 -1212.01,52.02 -1196.22,22.70 -1178.21,-3.29 -1158.14,-26.19 -1136.17,-46.17 -1112.46,-63.39 -1087.17,-78.02 -1060.45,-90.20 -1032.49,-100.11 -1003.44,-107.89 -973.49,-113.69 -942.79,-117.68 -911.53,-120.01 -879.88,-120.83 -848.02,-120.30 -816.13,-118.57 -784.37,-115.83 -752.94,-112.20 -721.98,-107.87 -691.70,-102.99 -662.25,-97.71 -633.82,-92.21 -606.57,-86.63 -580.68,-81.14 -556.32,-75.90 -533.66,-71.07 -512.88,-66.81 -494.15,-63.28 -476.99,-60.28 -460.76,-57.46 -445.35,-54.84 -430.72,-52.37 -416.81,-50.05 -403.56,-47.89 -390.92,-45.86 -378.81,-43.96 -367.19,-42.16 -356.01,-40.48 -345.19,-38.88 -334.69,-37.36 -328.40,-36.48"/>
        <lane id="gneE4_4" index="4" speed="13.89" length="1865.92" width="3.75" shape="-706.64,538.61 -723.51,540.51 -744.87,542.35 -766.92,543.66 -789.70,544.40 -813.22,544.54 -837.50,544.01 -856.03,543.21 -869.45,542.27 -888.49,540.83 -915.22,538.10 -942.76,534.54 -966.25,530.58 -989.38,525.44 -1012.12,519.12 -1034.36,511.66 -1056.02,503.05 -1077.02,493.31 -1097.25,482.47 -1116.63,470.54 -1135.07,457.53 -1152.49,443.47 -1168.79,428.35 -1183.90,412.22 -1197.72,395.08 -1210.18,376.94 -1221.19,357.81 -1230.67,337.70 -1238.53,316.63 -1244.69,294.59 -1249.06,271.58 -1251.56,247.63 -1252.09,222.72 -1250.55,196.85 -1246.86,170.05 -1240.92,142.30 -1232.62,113.63 -1221.88,84.06 -1208.64,53.66 -1193.02,24.67 -1175.25,-0.98 -1155.46,-23.56 -1133.80,-43.26 -1110.41,-60.24 -1085.45,-74.68 -1059.05,-86.72 -1031.38,-96.53 -1002.60,-104.23 -972.89,-109.99 -942.41,-113.95 -911.34,-116.26 -879.87,-117.08 -848.15,-116.55 -816.39,-114.83 -784.75,-112.10 -753.41,-108.48 -722.54,-104.17 -692.33,-99.29 -662.94,-94.02 -634.55,-88.53 -607.33,-82.96 -581.47,-77.48 -557.10,-72.24 -534.43,-67.40 -513.60,-63.13 -494.82,-59.59 -477.64,-56.59 -461.40,-53.77 -445.98,-51.14 -431.34,-48.67 -417.42,-46.35 -404.16,-44.19 -391.51,-42.16 -379.39,-40.25 -367.76,-38.45 -356.57,-36.77 -345.73,-35.17 -335.22,-33.65 -328.93,-32.76"/>
        <lane id="gneE4_5" index="5" speed="13.89" length="1865.92" width="3.50" shape="-707.62,535.07 -723.87,536.90 -745.13,538.74 -767.09,540.04 -789.77,540.78 -813.19,540.91 -837.39,540.39 -855.83,539.59 -869.19,538.66 -888.16,537.22 -914.80,534.50 -942.23,530.95 -965.56,527.02 -988.50,521.92 -1011.05,515.65 -1033.11,508.25 -1054.59,499.72 -1075.40,490.07 -1095.44,479.33 -1114.63,467.51 -1132.89,454.64 -1150.12,440.72 -1166.24,425.78 -1181.16,409.84 -1194.81,392.92 -1207.11,375.00 -1217.97,356.13 -1227.32,336.29 -1235.08,315.50 -1241.16,293.76 -1245.47,271.05 -1247.94,247.40 -1248.46,222.79 -1246.94,197.21 -1243.28,170.68 -1237.40,143.18 -1229.17,114.76 -1218.52,85.40 -1205.38,55.24 -1189.92,26.56 -1172.39,1.25 -1152.87,-21.02 -1131.51,-40.44 -1108.43,-57.20 -1083.78,-71.46 -1057.69,-83.35 -1030.30,-93.06 -1001.78,-100.70 -972.31,-106.41 -942.04,-110.34 -911.16,-112.64 -879.85,-113.45 -848.28,-112.93 -816.65,-111.22 -785.11,-108.49 -753.87,-104.89 -723.08,-100.58 -692.94,-95.72 -663.60,-90.46 -635.26,-84.98 -608.07,-79.41 -582.22,-73.93 -557.86,-68.69 -535.17,-63.85 -514.30,-59.58 -495.47,-56.02 -478.26,-53.01 -462.01,-50.19 -446.59,-47.57 -431.94,-45.10 -418.02,-42.78 -404.74,-40.61 -392.08,-38.58 -379.95,-36.67 -368.31,-34.87 -357.10,-33.18 -346.26,-31.58 -335.73,-30.06 -329.43,-29.17"/>
    </edge>
    <edge id="gneE5" from="gneJ6" to="gneJ7" priority="-1" shape="-325.71,-26.88 -315.64,-25.49 -305.71,-24.16 -295.87,-22.86 -286.06,-21.59 -276.22,-20.34 -266.30,-19.10 -256.24,-17.86 -245.98,-16.61 -235.46,-15.32 -224.63,-14.01 -213.42,-12.65 -201.79,-11.23 -189.66,-9.75 -176.89,-8.18">
        <lane id="gneE5_0" index="0" speed="13.89" length="141.82" width="3.75" shape="-320.48,-35.37 -314.41,-34.53 -304.51,-33.21 -294.69,-31.91 -284.90,-30.64 -275.08,-29.39 -265.18,-28.16 -255.13,-26.92 -244.87,-25.67 -234.36,-24.38 -223.53,-23.07 -212.32,-21.71 -200.68,-20.29 -188.55,-18.81 -179.82,-17.73"/>