<?xml version="1.0" encoding="UTF-8"?>

<!-- generated on 12/27/19 17:58:27 by Eclipse SUMO netedit Version 1.2.0
<configuration xmlns:xsi="http://www.w3.org/2001/XMLSchema-instance" xsi:noNamespaceSchemaLocation="http://sumo.dlr.de/xsd/netconvertConfiguration.xsd">

    <input>
        <sumo-net-file value="F:\Work\sumo%20line\8_Style%20Urban%20Expressway.net.xml"/>
    </input>

    <output>
        <output-file value="F:\Work\sumo%20line\8_Style%20Urban%20Expressway.net.xml"/>
    </output>

    <processing>
        <geometry.max-grade.fix value="false"/>
        <offset.disable-normalization value="true"/>
        <lefthand value="false"/>
    </processing>

    <junctions>
        <no-turnarounds value="true"/>
        <junctions.corner-detail value="5"/>
        <junctions.limit-turn-speed value="5.5"/>
        <rectangular-lane-cut value="false"/>
    </junctions>

    <pedestrian>
        <walkingareas value="false"/>
    </pedestrian>

</configuration>
-->

<net version="1.1" junctionCornerDetail="5" limitTurnSpeed="5.50" xmlns:xsi="http://www.w3.org/2001/XMLSchema-instance" xsi:noNamespaceSchemaLocation="http://sumo.dlr.de/xsd/net_file.xsd">

    <location netOffset="0.00,0.00" convBoundary="-248.97,-300.10,250.74,603.70" origBoundary="-10000000000.00,-10000000000.00,10000000000.00,10000000000.00" projParameter="!"/>

    <edge id=":gneJ0_0" function="internal">
        <lane id=":gneJ0_0_0" index="0" speed="6.65" length="9.35" width="3.60" shape="4.80,13.45 2.75,11.92 0.70,11.40 -1.35,11.92 -3.40,13.46"/>
    </edge>
    <edge id=":gneJ0_1" function="internal">
        <lane id=":gneJ0_1_0" index="0" speed="13.89" length="24.52" width="3.60" shape="4.80,13.45 -12.54,-3.89"/>
        <lane id=":gneJ0_1_1" index="1" speed="13.89" length="24.52" width="3.70" shape="7.38,10.87 -9.95,-6.47"/>
    </edge>
    <edge id=":gneJ0_3" function="internal">
        <lane id=":gneJ0_3_0" index="0" speed="10.35" length="24.28" width="3.70" shape="7.38,10.87 3.39,5.55 2.05,0.23 3.38,-5.10 7.37,-10.42"/>
    </edge>
    <edge id=":gneJ0_4" function="internal">
        <lane id=":gneJ0_4_0" index="0" speed="6.66" length="9.37" width="3.60" shape="13.92,-3.89 12.38,-1.83 11.86,0.22 12.38,2.28 13.92,4.33"/>
    </edge>
    <edge id=":gneJ0_5" function="internal">
        <lane id=":gneJ0_5_0" index="0" speed="13.89" length="24.51" width="3.60" shape="13.92,-3.89 -3.40,13.46"/>
        <lane id=":gneJ0_5_1" index="1" speed="13.89" length="24.51" width="3.70" shape="11.34,-6.47 -5.99,10.88"/>
    </edge>
    <edge id=":gneJ0_7" function="internal">
        <lane id=":gneJ0_7_0" index="0" speed="10.35" length="12.14" width="3.70" shape="11.34,-6.47 6.01,-2.47 0.69,-1.14"/>
    </edge>
    <edge id=":gneJ0_16" function="internal">
        <lane id=":gneJ0_16_0" index="0" speed="10.35" length="12.14" width="3.70" shape="0.69,-1.14 -4.63,-2.47 -9.95,-6.47"/>
    </edge>
    <edge id=":gneJ0_8" function="internal">
        <lane id=":gneJ0_8_0" index="0" speed="6.65" length="9.35" width="3.60" shape="-3.41,-13.00 -1.36,-11.46 0.69,-10.95 2.74,-11.46 4.79,-13.00"/>
    </edge>
    <edge id=":gneJ0_9" function="internal">
        <lane id=":gneJ0_9_0" index="0" speed="13.89" length="24.51" width="3.60" shape="-3.41,-13.00 13.92,4.33"/>
        <lane id=":gneJ0_9_1" index="1" speed="13.89" length="24.51" width="3.70" shape="-5.99,-10.42 11.34,6.91"/>
    </edge>
    <edge id=":gneJ0_11" function="internal">
        <lane id=":gneJ0_11_0" index="0" speed="10.36" length="24.29" width="3.70" shape="-5.99,-10.42 -2.00,-5.10 -0.67,0.23 -2.00,5.55 -5.99,10.88"/>
    </edge>
    <edge id=":gneJ0_12" function="internal">
        <lane id=":gneJ0_12_0" index="0" speed="6.66" length="9.38" width="3.60" shape="-12.53,4.34 -10.99,2.29 -10.48,0.23 -11.00,-1.83 -12.54,-3.89"/>
    </edge>
    <edge id=":gneJ0_13" function="internal">
        <lane id=":gneJ0_13_0" index="0" speed="13.89" length="24.51" width="3.60" shape="-12.53,4.34 4.79,-13.00"/>
        <lane id=":gneJ0_13_1" index="1" speed="13.89" length="24.51" width="3.70" shape="-9.95,6.92 7.37,-10.42"/>
    </edge>
    <edge id=":gneJ0_15" function="internal">
        <lane id=":gneJ0_15_0" index="0" speed="10.35" length="12.14" width="3.70" shape="-9.95,6.92 -4.63,2.93 0.69,1.59"/>
    </edge>
    <edge id=":gneJ0_17" function="internal">
        <lane id=":gneJ0_17_0" index="0" speed="10.35" length="12.14" width="3.70" shape="0.69,1.59 6.01,2.92 11.34,6.91"/>
    </edge>
    <edge id=":gneJ1_0" function="internal">
        <lane id=":gneJ1_0_0" index="0" speed="13.89" length="0.16" width="3.60" shape="173.08,181.60 173.00,181.52"/>
        <lane id=":gneJ1_0_1" index="1" speed="13.89" length="0.16" width="3.70" shape="175.73,179.09 175.58,178.94"/>
    </edge>
    <edge id=":gneJ1_2" function="internal">
        <lane id=":gneJ1_2_0" index="0" speed="13.89" length="0.41" width="3.60" shape="182.12,172.40 182.44,172.72"/>
        <lane id=":gneJ1_2_1" index="1" speed="13.89" length="0.41" width="3.70" shape="179.54,174.98 179.79,175.24"/>
    </edge>
    <edge id=":gneJ2_0" function="internal">
        <lane id=":gneJ2_0_0" index="0" speed="13.89" length="0.16" width="3.60" shape="-171.23,181.52 -171.31,181.60"/>
        <lane id=":gneJ2_0_1" index="1" speed="13.89" length="0.16" width="3.70" shape="-173.81,178.94 -173.95,179.09"/>
    </edge>
    <edge id=":gneJ2_2" function="internal">
        <lane id=":gneJ2_2_0" index="0" speed="13.89" length="0.39" width="3.60" shape="-180.66,172.72 -180.36,172.41"/>
        <lane id=":gneJ2_2_1" index="1" speed="13.89" length="0.39" width="3.70" shape="-178.01,175.23 -177.78,174.99"/>
    </edge>
    <edge id=":gneJ3_0" function="internal">
        <lane id=":gneJ3_0_0" index="0" speed="13.89" length="0.81" width="3.60" shape="-99.00,-90.48 -99.63,-91.15"/>
        <lane id=":gneJ3_0_1" index="1" speed="13.89" length="0.81" width="3.70" shape="-96.42,-93.06 -96.89,-93.56"/>
    </edge>
    <edge id=":gneJ3_2" function="internal">
        <lane id=":gneJ3_2_0" index="0" speed="13.89" length="0.23" width="3.60" shape="-89.95,-99.68 -89.87,-99.59"/>
        <lane id=":gneJ3_2_1" index="1" speed="13.89" length="0.23" width="3.70" shape="-92.69,-97.26 -92.46,-97.02"/>
    </edge>
    <edge id=":gneJ4_0" function="internal">
        <lane id=":gneJ4_0_0" index="0" speed="13.89" length="1.14" width="3.60" shape="108.28,-98.44 108.03,-98.15 107.86,-97.95 107.68,-97.76 107.40,-97.48"/>
        <lane id=":gneJ4_0_1" index="1" speed="13.89" length="1.14" width="3.70" shape="105.48,-100.79 105.30,-100.56 105.16,-100.41 105.03,-100.27 104.82,-100.06"/>
    </edge>
    <edge id=":gneJ4_2" function="internal">
        <lane id=":gneJ4_2_0" index="0" speed="13.89" length="0.32" width="3.60" shape="98.28,-106.60 98.31,-106.63 98.33,-106.66 98.36,-106.68 98.39,-106.72"/>
        <lane id=":gneJ4_2_1" index="1" speed="13.89" length="0.32" width="3.70" shape="100.86,-104.02 100.96,-104.12 101.03,-104.19 101.09,-104.27 101.19,-104.38"/>
    </edge>

    <edge id="-gneE10" from="gneJ3" to="gneJ4" priority="-1" shape="-94.62,-95.22 -98.83,-100.00 -102.71,-104.93 -106.27,-110.00 -109.51,-115.20 -112.43,-120.52 -115.05,-125.95 -117.34,-131.47 -119.33,-137.09 -121.02,-142.77 -122.40,-148.52 -123.48,-154.32 -124.27,-160.17 -124.76,-166.04 -124.95,-171.93 -124.86,-177.83 -124.48,-183.73 -123.82,-189.61 -122.88,-195.46 -121.66,-201.28 -120.16,-207.05 -118.39,-212.76 -116.35,-218.40 -114.04,-223.95 -111.47,-229.41 -108.64,-234.77 -105.54,-240.02 -102.19,-245.13 -98.59,-250.11 -94.74,-254.94 -90.64,-259.61 -86.29,-264.11 -81.74,-268.39 -77.02,-272.39 -72.16,-276.13 -67.16,-279.60 -62.03,-282.80 -56.78,-285.73 -51.42,-288.39 -45.97,-290.78 -40.42,-292.89 -34.80,-294.74 -29.11,-296.32 -23.37,-297.62 -17.58,-298.65 -11.76,-299.40 -5.90,-299.89 -0.04,-300.10 5.83,-300.04 11.70,-299.70 17.55,-299.08 23.37,-298.20 29.15,-297.03 34.89,-295.59 40.57,-293.88 46.19,-291.89 51.72,-289.62 57.17,-287.07 62.51,-284.25 67.75,-281.14 72.87,-277.76 77.85,-274.11 82.70,-270.17 87.36,-265.98 91.80,-261.59 96.01,-257.00 99.98,-252.22 103.71,-247.28 107.21,-242.19 110.45,-236.94 113.45,-231.57 116.19,-226.09 118.66,-220.50 120.88,-214.82 122.83,-209.06 124.50,-203.24 125.90,-197.36 127.01,-191.45 127.84,-185.51 128.38,-179.56 128.63,-173.61 128.58,-167.68 128.22,-161.77 127.56,-155.90 126.59,-150.08 125.30,-144.34 123.69,-138.67 121.75,-133.09 119.49,-127.62 116.90,-122.27 113.96,-117.05 110.69,-111.97 107.07,-107.05 103.10,-102.30">
        <lane id="-gneE10_0" index="0" speed="13.89" length="574.57" width="3.60" shape="-99.63,-91.15 -103.79,-95.87 -107.89,-101.08 -111.65,-106.44 -115.08,-111.94 -118.17,-117.56 -120.94,-123.31 -123.36,-129.16 -125.47,-135.09 -127.25,-141.10 -128.71,-147.18 -129.85,-153.30 -130.68,-159.47 -131.20,-165.67 -131.40,-171.88 -131.31,-178.09 -130.91,-184.30 -130.21,-190.48 -129.22,-196.63 -127.94,-202.75 -126.36,-208.82 -124.51,-214.81 -122.36,-220.74 -119.94,-226.56 -117.24,-232.29 -114.27,-237.92 -111.02,-243.43 -107.50,-248.79 -103.73,-254.01 -99.69,-259.08 -95.38,-263.98 -90.82,-268.70 -86.04,-273.20 -81.07,-277.41 -75.97,-281.34 -70.71,-284.99 -65.31,-288.36 -59.79,-291.44 -54.15,-294.24 -48.41,-296.75 -42.58,-298.97 -36.67,-300.91 -30.69,-302.58 -24.65,-303.94 -18.56,-305.03 -12.44,-305.82 -6.28,-306.33 -0.12,-306.55 6.05,-306.49 12.23,-306.13 18.37,-305.48 24.49,-304.55 30.58,-303.32 36.61,-301.81 42.58,-300.01 48.49,-297.92 54.31,-295.53 60.04,-292.85 65.66,-289.88 71.17,-286.61 76.56,-283.06 81.79,-279.22 86.89,-275.07 91.79,-270.67 96.45,-266.07 100.87,-261.24 105.04,-256.23 108.94,-251.05 112.62,-245.71 116.01,-240.21 119.15,-234.59 122.03,-228.84 124.62,-222.98 126.94,-217.03 128.99,-210.98 130.74,-204.88 132.21,-198.70 133.38,-192.49 134.25,-186.25 134.82,-179.99 135.08,-173.72 135.03,-167.46 134.65,-161.21 133.95,-155.01 132.92,-148.84 131.55,-142.75 129.84,-136.73 127.78,-130.80 125.38,-124.98 122.62,-119.28 119.49,-113.72 116.00,-108.31 112.15,-103.07 108.28,-98.44"/>
        <lane id="-gneE10_1" index="1" speed="13.89" length="574.57" width="3.70" shape="-96.89,-93.56 -100.98,-98.21 -104.96,-103.26 -108.61,-108.45 -111.93,-113.78 -114.92,-119.24 -117.61,-124.80 -119.95,-130.47 -121.99,-136.22 -123.73,-142.04 -125.14,-147.94 -126.25,-153.88 -127.05,-159.87 -127.56,-165.88 -127.75,-171.91 -127.66,-177.94 -127.27,-183.98 -126.60,-189.99 -125.63,-195.97 -124.39,-201.92 -122.85,-207.82 -121.05,-213.65 -118.96,-219.41 -116.60,-225.08 -113.98,-230.66 -111.08,-236.14 -107.92,-241.50 -104.50,-246.72 -100.82,-251.80 -96.89,-256.74 -92.70,-261.51 -88.26,-266.10 -83.61,-270.48 -78.78,-274.57 -73.81,-278.39 -68.70,-281.94 -63.45,-285.21 -58.09,-288.21 -52.61,-290.93 -47.03,-293.37 -41.36,-295.53 -35.61,-297.42 -29.79,-299.04 -23.92,-300.37 -18.00,-301.42 -12.06,-302.19 -6.07,-302.69 -0.08,-302.90 5.93,-302.84 11.93,-302.49 17.91,-301.86 23.86,-300.96 29.77,-299.76 35.63,-298.29 41.44,-296.54 47.19,-294.51 52.85,-292.18 58.42,-289.58 63.88,-286.69 69.24,-283.51 74.47,-280.06 79.56,-276.33 84.52,-272.30 89.28,-268.02 93.82,-263.53 98.12,-258.84 102.18,-253.96 105.98,-248.92 109.56,-243.72 112.86,-238.36 115.93,-232.88 118.72,-227.28 121.25,-221.58 123.51,-215.78 125.50,-209.90 127.21,-203.95 128.64,-197.94 129.77,-191.90 130.62,-185.83 131.17,-179.75 131.43,-173.66 131.38,-167.58 131.01,-161.53 130.33,-155.51 129.34,-149.54 128.01,-143.65 126.36,-137.83 124.37,-132.09 122.05,-126.47 119.38,-120.97 116.36,-115.60 113.00,-110.38 109.27,-105.32 105.48,-100.79"/>
        <lane id="-gneE10_2" index="2" disallow="all" speed="13.89" length="574.57" width="0.95" shape="-95.15,-95.10 -99.20,-99.70 -103.09,-104.65 -106.67,-109.74 -109.92,-114.96 -112.85,-120.30 -115.48,-125.76 -117.78,-131.30 -119.78,-136.94 -121.48,-142.65 -122.86,-148.42 -123.95,-154.24 -124.74,-160.12 -125.23,-166.01 -125.43,-171.93 -125.33,-177.85 -124.95,-183.77 -124.29,-189.67 -123.35,-195.55 -122.12,-201.39 -120.62,-207.18 -118.84,-212.91 -116.79,-218.57 -114.47,-224.14 -111.90,-229.62 -109.05,-235.00 -105.94,-240.27 -102.58,-245.40 -98.97,-250.40 -95.10,-255.24 -90.99,-259.93 -86.62,-264.45 -82.06,-268.74 -77.32,-272.76 -72.44,-276.51 -67.42,-280.00 -62.27,-283.21 -57.00,-286.15 -51.62,-288.82 -46.15,-291.22 -40.58,-293.34 -34.94,-295.19 -29.23,-296.78 -23.46,-298.09 -17.65,-299.12 -11.81,-299.87 -5.93,-300.36 -0.05,-300.58 5.85,-300.51 11.74,-300.17 17.61,-299.55 23.45,-298.67 29.25,-297.49 35.02,-296.05 40.72,-294.33 46.36,-292.33 51.91,-290.06 57.38,-287.50 62.74,-284.66 68.00,-281.54 73.14,-278.15 78.14,-274.49 83.01,-270.53 87.69,-266.33 92.14,-261.92 96.37,-257.31 100.35,-252.52 104.10,-247.56 107.61,-242.45 110.86,-237.18 113.87,-231.79 116.62,-226.29 119.10,-220.68 121.33,-214.98 123.28,-209.20 124.96,-203.36 126.36,-197.46 127.48,-191.53 128.31,-185.56 128.85,-179.59 129.11,-173.62 129.05,-167.66 128.69,-161.73 128.03,-155.83 127.06,-149.99 125.76,-144.22 124.14,-138.53 122.19,-132.92 119.92,-127.43 117.32,-122.05 114.37,-116.80 111.08,-111.70 107.44,-106.76 103.70,-102.28"/>
    </edge>
    <edge id="-gneE11" from="gneJ2" to="gneJ1" priority="-1" shape="-175.89,177.06 -185.03,186.69 -193.55,196.67 -201.47,206.98 -208.78,217.60 -215.48,228.50 -221.57,239.66 -227.05,251.05 -231.92,262.65 -236.18,274.44 -239.84,286.39 -242.88,298.46 -245.32,310.66 -247.15,322.93 -248.36,335.27 -248.97,347.64 -248.97,360.03 -248.36,372.40 -247.15,384.74 -245.32,397.02 -242.88,409.21 -239.84,421.29 -236.18,433.23 -231.92,445.02 -227.05,456.62 -221.57,468.01 -215.48,479.17 -208.78,490.07 -201.47,500.69 -193.55,511.01 -185.03,520.99 -175.89,530.61 -166.27,539.75 -156.28,548.27 -145.97,556.19 -135.35,563.50 -124.45,570.20 -113.29,576.29 -101.90,581.77 -90.30,586.64 -78.51,590.90 -66.57,594.56 -54.49,597.61 -42.30,600.04 -30.02,601.87 -17.68,603.09 -5.31,603.70 7.08,603.70 19.45,603.09 31.79,601.87 44.07,600.04 56.26,597.61 68.34,594.56 80.28,590.91 92.07,586.64 103.67,581.77 115.06,576.29 126.22,570.20 137.12,563.50 147.74,556.19 158.05,548.27 168.04,539.75 177.66,530.61 186.80,520.99 195.32,511.01 203.24,500.69 210.55,490.07 217.25,479.17 223.34,468.01 228.82,456.62 233.69,445.02 237.95,433.23 241.61,421.29 244.65,409.21 247.09,397.02 248.92,384.74 250.13,372.40 250.74,360.03 250.74,347.64 250.13,335.27 248.92,322.93 247.09,310.66 244.65,298.46 241.61,286.39 237.95,274.44 233.69,262.65 228.82,251.05 223.34,239.66 217.25,228.50 210.55,217.60 203.24,206.98 195.32,196.67 186.80,186.69 177.66,177.06">
        <lane id="-gneE11_0" index="0" speed="13.89" length="1162.59" width="3.60" shape="-171.31,181.60 -180.23,191.01 -188.54,200.73 -196.25,210.78 -203.37,221.12 -209.90,231.74 -215.83,242.60 -221.17,253.70 -225.91,265.00 -230.06,276.48 -233.63,288.12 -236.59,299.88 -238.96,311.77 -240.75,323.72 -241.93,335.74 -242.52,347.80 -242.52,359.87 -241.93,371.93 -240.75,383.95 -238.96,395.91 -236.59,407.79 -233.63,419.56 -230.06,431.19 -225.91,442.67 -221.17,453.97 -215.83,465.07 -209.90,475.93 -203.37,486.55 -196.25,496.90 -188.54,506.95 -180.24,516.67 -171.33,526.05 -161.95,534.95 -152.22,543.26 -142.17,550.97 -131.83,558.09 -121.21,564.62 -110.35,570.55 -99.25,575.89 -87.95,580.63 -76.47,584.78 -64.83,588.35 -53.07,591.32 -41.19,593.68 -29.23,595.47 -17.20,596.66 -5.15,597.25 6.92,597.25 18.97,596.66 31.00,595.47 42.96,593.68 54.84,591.32 66.61,588.35 78.24,584.79 89.72,580.63 101.02,575.89 112.12,570.55 122.98,564.62 133.60,558.09 143.94,550.97 153.99,543.26 163.72,534.95 173.10,526.05 182.01,516.67 190.31,506.95 198.02,496.90 205.14,486.55 211.67,475.93 217.60,465.07 222.94,453.97 227.68,442.67 231.83,431.19 235.40,419.56 238.36,407.79 240.73,395.91 242.52,383.95 243.70,371.93 244.29,359.87 244.29,347.80 243.70,335.74 242.52,323.72 240.73,311.77 238.36,299.88 235.40,288.12 231.83,276.48 227.68,265.00 222.94,253.70 217.60,242.60 211.67,231.74 205.14,221.12 198.02,210.78 190.31,200.73 182.00,191.01 173.08,181.60"/>
        <lane id="-gneE11_1" index="1" speed="13.89" length="1162.59" width="3.70" shape="-173.95,179.09 -182.95,188.56 -191.37,198.43 -199.21,208.63 -206.43,219.13 -213.06,229.90 -219.08,240.94 -224.50,252.20 -229.31,263.67 -233.52,275.33 -237.14,287.14 -240.15,299.08 -242.56,311.14 -244.37,323.27 -245.57,335.48 -246.17,347.71 -246.17,359.96 -245.57,372.19 -244.37,384.40 -242.56,396.54 -240.15,408.59 -237.14,420.54 -233.52,432.34 -229.31,444.00 -224.50,455.47 -219.08,466.73 -213.06,477.77 -206.43,488.54 -199.20,499.04 -191.37,509.25 -182.95,519.12 -173.91,528.63 -164.40,537.67 -154.52,546.09 -144.32,553.93 -133.82,561.15 -123.05,567.78 -112.01,573.80 -100.75,579.22 -89.28,584.03 -77.62,588.24 -65.82,591.86 -53.87,594.88 -41.82,597.28 -29.68,599.09 -17.47,600.30 -5.24,600.90 7.01,600.90 19.24,600.30 31.45,599.09 43.59,597.28 55.64,594.88 67.59,591.86 79.39,588.25 91.05,584.03 102.52,579.22 113.78,573.80 124.82,567.78 135.59,561.15 146.09,553.93 156.29,546.09 166.17,537.67 175.68,528.63 184.72,519.12 193.14,509.25 200.97,499.04 208.20,488.54 214.83,477.77 220.85,466.73 226.27,455.47 231.08,444.00 235.29,432.34 238.91,420.54 241.92,408.59 244.33,396.54 246.14,384.40 247.34,372.19 247.94,359.96 247.94,347.71 247.34,335.48 246.14,323.27 244.33,311.14 241.92,299.08 238.91,287.14 235.29,275.33 231.08,263.67 226.27,252.20 220.85,240.94 214.83,229.90 208.20,219.13 200.98,208.63 193.14,198.43 184.72,188.56 175.73,179.09"/>
        <lane id="-gneE11_2" index="2" disallow="all" speed="13.89" length="1162.59" width="0.95" shape="-175.64,177.49 -184.68,187.01 -193.18,196.97 -201.09,207.26 -208.38,217.86 -215.07,228.74 -221.15,239.88 -226.62,251.25 -231.48,262.82 -235.73,274.59 -239.38,286.52 -242.42,298.56 -244.85,310.74 -246.68,322.99 -247.89,335.30 -248.50,347.65 -248.50,360.02 -247.89,372.37 -246.68,384.68 -244.85,396.94 -242.42,409.11 -239.38,421.16 -235.73,433.08 -231.48,444.85 -226.62,456.42 -221.15,467.79 -215.07,478.93 -208.38,489.81 -201.09,500.41 -193.18,510.71 -184.68,520.67 -175.55,530.27 -165.95,539.40 -155.98,547.90 -145.69,555.81 -135.09,563.10 -124.21,569.79 -113.07,575.87 -101.70,581.34 -90.13,586.20 -78.36,590.45 -66.44,594.10 -54.39,597.15 -42.22,599.57 -29.96,601.40 -17.64,602.62 -5.30,603.23 7.07,603.23 19.41,602.62 31.73,601.40 43.99,599.57 56.16,597.15 68.21,594.10 80.13,590.46 91.90,586.20 103.47,581.34 114.84,575.87 125.98,569.79 136.86,563.10 147.46,555.81 157.75,547.90 167.72,539.40 177.32,530.27 186.45,520.67 194.95,510.71 202.86,500.41 210.15,489.81 216.84,478.93 222.92,467.79 228.39,456.42 233.25,444.85 237.50,433.08 241.15,421.16 244.19,409.11 246.62,396.94 248.45,384.68 249.66,372.37 250.27,360.02 250.27,347.65 249.66,335.30 248.45,322.99 246.62,310.74 244.19,298.56 241.15,286.52 237.50,274.59 233.25,262.82 228.39,251.25 222.92,239.88 216.84,228.74 210.15,217.86 202.86,207.26 194.95,196.97 186.45,187.01 177.41,177.49"/>
    </edge>
    <edge id="gneE0" from="gneJ0" to="gneJ1" priority="-1">
        <lane id="gneE0_0" index="0" speed="13.89" length="237.78" width="3.60" shape="13.92,4.33 182.12,172.40"/>
        <lane id="gneE0_1" index="1" speed="13.89" length="237.78" width="3.70" shape="11.34,6.91 179.54,174.98"/>
        <lane id="gneE0_2" index="2" disallow="all" speed="13.89" length="237.78" width="0.95" shape="9.69,8.55 177.90,176.62"/>
    </edge>
    <edge id="gneE1" from="gneJ1" to="gneJ0" priority="-1">
        <lane id="gneE1_0" index="0" speed="13.89" length="237.78" width="3.60" shape="173.00,181.52 4.80,13.45"/>
        <lane id="gneE1_1" index="1" speed="13.89" length="237.78" width="3.70" shape="175.58,178.94 7.38,10.87"/>
        <lane id="gneE1_2" index="2" disallow="all" speed="13.89" length="237.78" width="0.95" shape="177.22,177.30 9.02,9.23"/>
    </edge>
    <edge id="gneE10" from="gneJ4" to="gneJ3" priority="-1" shape="103.10,-102.30 107.07,-107.05 110.69,-111.97 113.96,-117.05 116.90,-122.27 119.49,-127.62 121.75,-133.09 123.69,-138.67 125.30,-144.34 126.59,-150.08 127.56,-155.90 128.22,-161.77 128.58,-167.68 128.63,-173.61 128.38,-179.56 127.84,-185.51 127.01,-191.45 125.90,-197.36 124.50,-203.24 122.83,-209.06 120.88,-214.82 118.66,-220.50 116.19,-226.09 113.45,-231.57 110.45,-236.94 107.21,-242.19 103.71,-247.28 99.98,-252.22 96.01,-257.00 91.80,-261.59 87.36,-265.98 82.70,-270.17 77.85,-274.11 72.87,-277.76 67.75,-281.14 62.51,-284.25 57.17,-287.07 51.72,-289.62 46.19,-291.89 40.57,-293.88 34.89,-295.59 29.15,-297.03 23.37,-298.20 17.55,-299.08 11.70,-299.70 5.83,-300.04 -0.04,-300.10 -5.90,-299.89 -11.76,-299.40 -17.58,-298.65 -23.37,-297.62 -29.11,-296.32 -34.80,-294.74 -40.42,-292.89 -45.97,-290.78 -51.42,-288.39 -56.78,-285.73 -62.03,-282.80 -67.16,-279.60 -72.16,-276.13 -77.02,-272.39 -81.74,-268.39 -86.29,-264.11 -90.64,-259.61 -94.74,-254.94 -98.59,-250.11 -102.19,-245.13 -105.54,-240.02 -108.64,-234.77 -111.47,-229.41 -114.04,-223.95 -116.35,-218.40 -118.39,-212.76 -120.16,-207.05 -121.66,-201.28 -122.88,-195.46 -123.82,-189.61 -124.48,-183.73 -124.86,-177.83 -124.95,-171.93 -124.76,-166.04 -124.27,-160.17 -123.48,-154.32 -122.40,-148.52 -121.02,-142.77 -119.33,-137.09 -117.34,-131.47 -115.05,-125.95 -112.43,-120.52 -109.51,-115.20 -106.27,-110.00 -102.71,-104.93 -98.83,-100.00 -94.62,-95.22">
        <lane id="gneE10_0" index="0" speed="13.89" length="545.00" width="3.60" shape="98.39,-106.72 101.99,-111.03 105.38,-115.63 108.43,-120.38 111.18,-125.26 113.60,-130.26 115.72,-135.38 117.54,-140.61 119.05,-145.93 120.26,-151.32 121.17,-156.79 121.79,-162.33 122.13,-167.90 122.18,-173.50 121.94,-179.13 121.43,-184.77 120.64,-190.41 119.59,-196.02 118.26,-201.60 116.67,-207.14 114.82,-212.61 112.70,-218.02 110.35,-223.34 107.75,-228.55 104.89,-233.67 101.80,-238.67 98.48,-243.51 94.92,-248.21 91.15,-252.76 87.15,-257.11 82.93,-261.29 78.51,-265.27 73.91,-269.00 69.18,-272.46 64.33,-275.67 59.36,-278.62 54.30,-281.29 49.13,-283.71 43.89,-285.86 38.56,-287.75 33.17,-289.37 27.72,-290.74 22.25,-291.85 16.73,-292.68 11.17,-293.27 5.61,-293.59 0.04,-293.65 -5.52,-293.45 -11.08,-292.98 -16.60,-292.27 -22.09,-291.30 -27.53,-290.06 -32.93,-288.57 -38.26,-286.81 -43.53,-284.81 -48.69,-282.54 -53.77,-280.02 -58.75,-277.24 -63.61,-274.21 -68.35,-270.92 -72.97,-267.37 -77.44,-263.58 -81.76,-259.52 -85.90,-255.24 -89.79,-250.80 -93.45,-246.21 -96.88,-241.47 -100.06,-236.61 -103.01,-231.62 -105.70,-226.53 -108.14,-221.34 -110.34,-216.06 -112.27,-210.71 -113.96,-205.28 -115.38,-199.81 -116.54,-194.29 -117.43,-188.74 -118.05,-183.16 -118.41,-177.57 -118.50,-171.98 -118.32,-166.41 -117.86,-160.87 -117.11,-155.34 -116.09,-149.86 -114.79,-144.44 -113.19,-139.09 -111.32,-133.78 -109.16,-128.59 -106.69,-123.48 -103.94,-118.46 -100.89,-113.56 -97.53,-108.78 -93.87,-104.13 -89.95,-99.68"/>
        <lane id="gneE10_1" index="1" speed="13.89" length="545.00" width="3.70" shape="101.19,-104.38 104.87,-108.78 108.38,-113.56 111.56,-118.50 114.42,-123.57 116.93,-128.77 119.13,-134.09 121.02,-139.51 122.59,-145.03 123.84,-150.62 124.79,-156.29 125.43,-162.01 125.78,-167.78 125.83,-173.56 125.59,-179.37 125.06,-185.19 124.25,-191.00 123.16,-196.78 121.79,-202.53 120.16,-208.22 118.25,-213.86 116.07,-219.42 113.66,-224.90 110.97,-230.26 108.04,-235.52 104.86,-240.66 101.44,-245.64 97.78,-250.48 93.90,-255.16 89.78,-259.65 85.44,-263.94 80.88,-268.04 76.14,-271.89 71.27,-275.46 66.26,-278.77 61.14,-281.81 55.92,-284.56 50.59,-287.06 45.19,-289.27 39.70,-291.22 34.15,-292.89 28.53,-294.30 22.88,-295.44 17.19,-296.30 11.47,-296.91 5.73,-297.24 -0.00,-297.30 -5.73,-297.09 -11.46,-296.61 -17.16,-295.88 -22.82,-294.87 -28.43,-293.60 -33.99,-292.06 -39.48,-290.25 -44.91,-288.19 -50.23,-285.85 -55.47,-283.25 -60.61,-280.39 -65.62,-277.26 -70.51,-273.87 -75.26,-270.21 -79.87,-266.30 -84.32,-262.12 -88.58,-257.71 -92.59,-253.14 -96.36,-248.42 -99.88,-243.54 -103.16,-238.54 -106.20,-233.40 -108.96,-228.16 -111.48,-222.82 -113.74,-217.39 -115.73,-211.87 -117.47,-206.28 -118.93,-200.64 -120.13,-194.95 -121.04,-189.23 -121.69,-183.48 -122.06,-177.72 -122.15,-171.95 -121.96,-166.20 -121.49,-160.47 -120.71,-154.76 -119.66,-149.10 -118.31,-143.50 -116.67,-137.96 -114.73,-132.47 -112.49,-127.10 -109.94,-121.80 -107.09,-116.62 -103.93,-111.55 -100.46,-106.60 -96.68,-101.79 -92.69,-97.26"/>
        <lane id="gneE10_2" index="2" disallow="all" speed="13.89" length="545.00" width="0.95" shape="102.97,-102.89 106.70,-107.34 110.30,-112.24 113.55,-117.30 116.48,-122.49 119.06,-127.81 121.31,-133.26 123.24,-138.81 124.84,-144.46 126.12,-150.17 127.09,-155.97 127.75,-161.81 128.11,-167.70 128.15,-173.60 127.91,-179.53 127.37,-185.46 126.54,-191.37 125.44,-197.26 124.04,-203.12 122.38,-208.92 120.43,-214.66 118.22,-220.32 115.76,-225.89 113.03,-231.35 110.04,-236.70 106.81,-241.93 103.32,-247.00 99.61,-251.92 95.65,-256.69 91.46,-261.26 87.03,-265.63 82.39,-269.81 77.56,-273.73 72.60,-277.37 67.50,-280.74 62.28,-283.84 56.96,-286.64 51.53,-289.18 46.02,-291.45 40.42,-293.43 34.76,-295.13 29.05,-296.57 23.29,-297.73 17.49,-298.61 11.66,-299.23 5.81,-299.57 -0.03,-299.62 -5.87,-299.42 -11.71,-298.93 -17.51,-298.18 -23.28,-297.15 -28.99,-295.86 -34.66,-294.29 -40.26,-292.44 -45.79,-290.34 -51.22,-287.96 -56.56,-285.31 -61.79,-282.39 -66.90,-279.20 -71.88,-275.75 -76.72,-272.02 -81.42,-268.04 -85.96,-263.77 -90.29,-259.29 -94.38,-254.64 -98.21,-249.82 -101.80,-244.86 -105.14,-239.77 -108.23,-234.54 -111.04,-229.20 -113.61,-223.76 -115.91,-218.23 -117.94,-212.61 -119.70,-206.92 -121.20,-201.17 -122.41,-195.37 -123.35,-189.55 -124.01,-183.69 -124.39,-177.81 -124.47,-171.93 -124.29,-166.07 -123.80,-160.22 -123.01,-154.40 -121.94,-148.62 -120.56,-142.89 -118.88,-137.24 -116.90,-131.64 -114.62,-126.14 -112.01,-120.74 -109.10,-115.44 -105.87,-110.26 -102.33,-105.21 -98.46,-100.30 -94.43,-95.73"/>
    </edge>
    <edge id="gneE11" from="gneJ1" to="gneJ2" priority="-1" shape="177.66,177.06 186.80,186.69 195.32,196.67 203.24,206.98 210.55,217.60 217.25,228.50 223.34,239.66 228.82,251.05 233.69,262.65 237.95,274.44 241.61,286.39 244.65,298.46 247.09,310.66 248.92,322.93 250.13,335.27 250.74,347.64 250.74,360.03 250.13,372.40 248.92,384.74 247.09,397.02 244.65,409.21 241.61,421.29 237.95,433.23 233.69,445.02 228.82,456.62 223.34,468.01 217.25,479.17 210.55,490.07 203.24,500.69 195.32,511.01 186.80,520.99 177.66,530.61 168.04,539.75 158.05,548.27 147.74,556.19 137.12,563.50 126.22,570.20 115.06,576.29 103.67,581.77 92.07,586.64 80.28,590.91 68.34,594.56 56.26,597.61 44.07,600.04 31.79,601.87 19.45,603.09 7.08,603.70 -5.31,603.70 -17.68,603.09 -30.02,601.87 -42.30,600.04 -54.49,597.61 -66.57,594.56 -78.51,590.90 -90.30,586.64 -101.90,581.77 -113.29,576.29 -124.45,570.20 -135.35,563.50 -145.97,556.19 -156.28,548.27 -166.27,539.75 -175.89,530.61 -185.03,520.99 -193.55,511.01 -201.47,500.69 -208.78,490.07 -215.48,479.17 -221.57,468.01 -227.05,456.62 -231.92,445.02 -236.18,433.23 -239.84,421.29 -242.88,409.21 -245.32,397.02 -247.15,384.74 -248.36,372.40 -248.97,360.03 -248.97,347.64 -248.36,335.27 -247.15,322.93 -245.32,310.66 -242.88,298.46 -239.84,286.39 -236.18,274.44 -231.92,262.65 -227.05,251.05 -221.57,239.66 -215.48,228.50 -208.78,217.60 -201.47,206.98 -193.55,196.67 -185.03,186.69 -175.89,177.06">
        <lane id="gneE11_0" index="0" speed="13.89" length="1192.81" width="3.60" shape="182.44,172.72 191.60,182.37 200.33,192.61 208.46,203.18 215.96,214.08 222.83,225.26 229.08,236.72 234.70,248.40 239.70,260.30 244.07,272.40 247.82,284.66 250.94,297.04 253.45,309.55 255.32,322.14 256.56,334.80 257.19,347.48 257.19,360.19 256.56,372.87 255.32,385.53 253.45,398.13 250.94,410.63 247.82,423.02 244.07,435.27 239.70,447.37 234.70,459.27 229.08,470.95 222.83,482.41 215.96,493.59 208.46,504.48 200.33,515.07 191.59,525.31 182.22,535.17 172.36,544.55 162.11,553.28 151.54,561.41 140.64,568.91 129.46,575.78 118.00,582.03 106.32,587.65 94.42,592.65 82.32,597.03 70.07,600.77 57.68,603.90 45.18,606.40 32.58,608.27 19.93,609.52 7.24,610.15 -5.47,610.15 -18.16,609.52 -30.81,608.27 -43.41,606.40 -55.91,603.90 -68.31,600.77 -80.55,597.02 -92.65,592.65 -104.55,587.65 -116.23,582.03 -127.69,575.78 -138.87,568.91 -149.77,561.41 -160.34,553.28 -170.59,544.55 -180.45,535.17 -189.82,525.31 -198.56,515.07 -206.69,504.48 -214.19,493.59 -221.06,482.41 -227.31,470.95 -232.93,459.27 -237.93,447.37 -242.30,435.27 -246.05,423.02 -249.17,410.63 -251.68,398.13 -253.55,385.53 -254.79,372.87 -255.42,360.19 -255.42,347.48 -254.79,334.80 -253.55,322.14 -251.68,309.55 -249.17,297.04 -246.05,284.66 -242.30,272.40 -237.93,260.30 -232.93,248.40 -227.31,236.72 -221.06,225.26 -214.19,214.08 -206.69,203.18 -198.56,192.61 -189.83,182.37 -180.66,172.72"/>
        <lane id="gneE11_1" index="1" speed="13.89" length="1192.81" width="3.70" shape="179.79,175.24 188.88,184.82 197.50,194.91 205.50,205.33 212.90,216.07 219.67,227.10 225.83,238.38 231.37,249.90 236.30,261.63 240.61,273.55 244.31,285.64 247.38,297.84 249.85,310.18 251.70,322.59 252.92,335.06 253.54,347.57 253.54,360.10 252.92,372.61 251.70,385.08 249.85,397.50 247.38,409.83 244.31,422.04 240.61,434.12 236.30,446.04 231.37,457.77 225.83,469.29 219.67,480.57 212.90,491.60 205.51,502.34 197.50,512.77 188.88,522.86 179.64,532.59 169.91,541.83 159.81,550.45 149.39,558.45 138.65,565.85 127.62,572.62 116.34,578.78 104.82,584.32 93.09,589.25 81.17,593.57 69.09,597.26 56.88,600.34 44.55,602.80 32.13,604.65 19.66,605.88 7.15,606.50 -5.38,606.50 -17.89,605.88 -30.36,604.65 -42.78,602.80 -55.11,600.34 -67.32,597.26 -79.40,593.56 -91.32,589.25 -103.05,584.32 -114.57,578.78 -125.85,572.62 -136.88,565.85 -147.62,558.45 -158.04,550.45 -168.14,541.83 -177.87,532.59 -187.11,522.86 -195.73,512.77 -203.74,502.34 -211.13,491.60 -217.90,480.57 -224.06,469.29 -229.60,457.77 -234.53,446.04 -238.84,434.12 -242.54,422.04 -245.61,409.83 -248.08,397.50 -249.93,385.08 -251.15,372.61 -251.77,360.10 -251.77,347.57 -251.15,335.06 -249.93,322.59 -248.08,310.18 -245.61,297.84 -242.54,285.64 -238.84,273.55 -234.53,261.63 -229.60,249.90 -224.06,238.38 -217.90,227.10 -211.13,216.07 -203.73,205.33 -195.73,194.91 -187.11,184.82 -178.01,175.23"/>